version 2
run General-0-20210910-21:15:42-21792
attr configname General
attr datetime 20210910-21:15:42
attr experiment General
attr inifile omnetpp.ini
attr iterationvars ""
attr iterationvarsf ""
attr measurement ""
attr network TARPNetwork
attr processid 21792
attr repetition 0
attr replication #0
attr resultdir results
attr runnumber 0
attr seedset 0
param **.numNodes 50
param *.node*.typename "\"Node\""
param *.nodeA.numApps 1
param *.nodeA.app[0].typename "\"PingApp\""
param *.nodeA.app[0].destAddr "\"nodeB\""
param *.nodeA.app[0].startTime 1s
param **.wlan[*].typename "\"AckingWirelessInterface\""
param **.bitrate 2Mbps
param **.wlan[*].radio.transmitter.communicationRange 100m
param **.wlan[*].radio.transmitter.interferenceRange 0m
param **.wlan[*].radio.transmitter.detectionRange 0m
param **.wlan[*].radio.receiver.ignoreInterference true
param *.nodeA.wlan[0].radio.displayCommunicationRange true
param *.nodeB.wlan[0].radio.displayCommunicationRange true
param *.visualizer.dataLinkVisualizer.displayLinks true
param *.visualizer.networkRouteVisualizer.displayRoutes true
param *.visualizer.*LinkVisualizer.lineShift 0
param *.visualizer.networkRouteVisualizer.lineShift 0
param *.visualizer.networkRouteVisualizer.packetFilter "\"TARP*\""
param **.hasIpv4 false
param **.hasIpv6 false
param **.hasGn true
param **.forwarding true
param **.generic.typename "\"SimpleNetworkLayer\""
param **.generic.np.typename "\"TarpF\""
param **.app[*].networkProtocol "\"tarpf\""
param **.mobility.constraintAreaMinZ 0m
param **.mobility.constraintAreaMaxZ 0m
param **.mobility.constraintAreaMinX 0m
param **.mobility.constraintAreaMinY 0m
param **.mobility.constraintAreaMaxX 500m
param **.mobility.constraintAreaMaxY 500m
param **.node[*].mobility.typename "\"MassMobility\""
param **.node[*].mobility.changeInterval "normal(5s, 0.1s)"
param **.node[*].mobility.angleDelta "normal(0deg, 30deg)"
param **.node[*].mobility.speed "normal(2mps, 0.01mps)"

scalar TARPNetwork.radioMedium.propagation "Arrival computation count" 386580
scalar TARPNetwork.radioMedium "transmission count" 7580
scalar TARPNetwork.radioMedium "signal send count" 386580
scalar TARPNetwork.radioMedium "reception computation count" 386529
scalar TARPNetwork.radioMedium "interference computation count" 963102
scalar TARPNetwork.radioMedium "reception decision computation count" 19161
scalar TARPNetwork.radioMedium "listening decision computation count" 557412
scalar TARPNetwork.radioMedium "reception cache hit" 95.020575140325
attr unit %
scalar TARPNetwork.radioMedium "interference cache hit" 66.666666666667
attr unit %
scalar TARPNetwork.radioMedium "noise cache hit" 0
attr unit %
scalar TARPNetwork.radioMedium "snir cache hit" 50
attr unit %
scalar TARPNetwork.radioMedium "reception decision cache hit" 50
attr unit %
scalar TARPNetwork.radioMedium "reception result cache hit" 0
attr unit %
scalar TARPNetwork.node[0].lo[0].lo rcvdPkFromHl:count 0
attr interpolationmode none
attr source packetReceivedFromUpper
attr title "packets received from higher layer, count"
scalar TARPNetwork.node[0].lo[0].lo rcvdPkFromHl:sum(packetBytes) 0
attr interpolationmode none
attr source packetReceivedFromUpper
attr title "packets received from higher layer, sum(packetBytes)"
scalar TARPNetwork.node[0].lo[0].lo passedUpPk:count 0
attr interpolationmode none
attr source packetSentToUpper
attr title "packets passed to higher layer, count"
scalar TARPNetwork.node[0].lo[0].lo passedUpPk:sum(packetBytes) 0
attr interpolationmode none
attr source packetSentToUpper
attr title "packets passed to higher layer, sum(packetBytes)"
scalar TARPNetwork.node[0].wlan[0].mac.queue packetPopped:count 129
attr interpolationmode none
attr title "packet popped, count"
scalar TARPNetwork.node[0].wlan[0].mac.queue packetPopped:sum(packetBytes) 9804
attr interpolationmode none
attr title "packet popped, sum(packetBytes)"
statistic TARPNetwork.node[0].wlan[0].mac.queue queueingTime:histogram
field count 129
field mean 0
field stddev 0
field min 0
field max 0
field sum 0
field sqrsum 0
attr interpolationmode none
attr source queueingTime(packetPopped)
attr title "queueing times, histogram"
attr unit s
bin	-inf	0
bin	-0.5	0
bin	-0.48	0
bin	-0.46	0
bin	-0.44	0
bin	-0.42	0
bin	-0.4	0
bin	-0.38	0
bin	-0.36	0
bin	-0.34	0
bin	-0.32	0
bin	-0.3	0
bin	-0.28	0
bin	-0.26	0
bin	-0.24	0
bin	-0.22	0
bin	-0.2	0
bin	-0.18	0
bin	-0.16	0
bin	-0.14	0
bin	-0.12	0
bin	-0.1	0
bin	-0.08	0
bin	-0.06	0
bin	-0.04	0
bin	-0.02	0
bin	0	129
bin	0.02	0
bin	0.04	0
bin	0.06	0
bin	0.08	0
bin	0.1	0
bin	0.12	0
bin	0.14	0
bin	0.16	0
bin	0.18	0
bin	0.2	0
bin	0.22	0
bin	0.24	0
bin	0.26	0
bin	0.28	0
bin	0.3	0
bin	0.32	0
bin	0.34	0
bin	0.36	0
bin	0.38	0
bin	0.4	0
bin	0.42	0
bin	0.44	0
bin	0.46	0
bin	0.48	0
bin	0.5	0
scalar TARPNetwork.node[0].wlan[0].mac.queue queueLength:max 1
attr interpolationmode sample-hold
attr source "count(packetPushed) - count(packetPopped) - count(packetRemoved) - count(packetDropped)"
attr title "queue length, max"
scalar TARPNetwork.node[0].wlan[0].mac.queue queueLength:timeavg 0
attr interpolationmode sample-hold
attr source "count(packetPushed) - count(packetPopped) - count(packetRemoved) - count(packetDropped)"
attr title "queue length, timeavg"
scalar TARPNetwork.node[0].wlan[0].mac.queue packetPushed:count 129
attr interpolationmode none
attr title "packet pushed, count"
scalar TARPNetwork.node[0].wlan[0].mac.queue packetPushed:sum(packetBytes) 9804
attr interpolationmode none
attr title "packet pushed, sum(packetBytes)"
scalar TARPNetwork.node[0].wlan[0].mac.queue packetDropQueueOverflow:count 0
attr interpolationmode none
attr source packetDropReasonIsQueueOverflow(packetDropped)
attr title "packet drops: queue overflow, count"
scalar TARPNetwork.node[0].wlan[0].mac.queue packetDropQueueOverflow:sum(packetBytes) 0
attr interpolationmode none
attr source packetDropReasonIsQueueOverflow(packetDropped)
attr title "packet drops: queue overflow, sum(packetBytes)"
scalar TARPNetwork.node[0].wlan[0].mac.queue packetRemoved:count 0
attr interpolationmode none
attr title "packets removed, count"
scalar TARPNetwork.node[0].wlan[0].mac.queue packetRemoved:sum(packetBytes) 0
attr interpolationmode none
attr title "packets removed, sum(packetBytes)"
scalar TARPNetwork.node[0].wlan[0].mac rcvdPkFromLl:count 374
attr interpolationmode none
attr source packetReceivedFromLower
attr title "packets received from lower layer, count"
scalar TARPNetwork.node[0].wlan[0].mac rcvdPkFromLl:sum(packetBytes) 34408
attr interpolationmode none
attr source packetReceivedFromLower
attr title "packets received from lower layer, sum(packetBytes)"
scalar TARPNetwork.node[0].wlan[0].mac sentDownPk:count 129
attr interpolationmode none
attr source packetSentToLower
attr title "packets sent to lower layer, count"
scalar TARPNetwork.node[0].wlan[0].mac sentDownPk:sum(packetBytes) 11868
attr interpolationmode none
attr source packetSentToLower
attr title "packets sent to lower layer, sum(packetBytes)"
scalar TARPNetwork.node[0].wlan[0].mac rcvdPkFromHl:count 129
attr interpolationmode none
attr source packetReceivedFromUpper
attr title "packets received from higher layer, count"
scalar TARPNetwork.node[0].wlan[0].mac rcvdPkFromHl:sum(packetBytes) 9804
attr interpolationmode none
attr source packetReceivedFromUpper
attr title "packets received from higher layer, sum(packetBytes)"
scalar TARPNetwork.node[0].wlan[0].mac passedUpPk:count 374
attr interpolationmode none
attr source packetSentToUpper
attr title "packets passed to higher layer, count"
scalar TARPNetwork.node[0].wlan[0].mac passedUpPk:sum(packetBytes) 28424
attr interpolationmode none
attr source packetSentToUpper
attr title "packets passed to higher layer, sum(packetBytes)"
scalar TARPNetwork.node[0].wlan[0].mac packetDropIncorrectlyReceived:count 0
attr interpolationmode none
attr source packetDropReasonIsIncorrectlyReceived(packetDropped)
attr title "packet drop: incorrectly received, count"
scalar TARPNetwork.node[0].wlan[0].mac packetDropIncorrectlyReceived:sum(packetBytes) 0
attr interpolationmode none
attr source packetDropReasonIsIncorrectlyReceived(packetDropped)
attr title "packet drop: incorrectly received, sum(packetBytes)"
scalar TARPNetwork.node[0].wlan[0].mac packetDropInterfaceDown:count 0
attr interpolationmode none
attr source packetDropReasonIsInterfaceDown(packetDropped)
attr title "packet drop: interface down, count"
scalar TARPNetwork.node[0].wlan[0].mac packetDropInterfaceDown:sum(packetBytes) 0
attr interpolationmode none
attr source packetDropReasonIsInterfaceDown(packetDropped)
attr title "packet drop: interface down, sum(packetBytes)"
scalar TARPNetwork.node[0].wlan[0].mac packetDropNotAddressedToUs:count 0
attr interpolationmode none
attr source packetDropReasonIsNotAddressedToUs(packetDropped)
attr title "packet drop: not addressed to us, count"
scalar TARPNetwork.node[0].wlan[0].mac packetDropNotAddressedToUs:sum(packetBytes) 0
attr interpolationmode none
attr source packetDropReasonIsNotAddressedToUs(packetDropped)
attr title "packet drop: not addressed to us, sum(packetBytes)"
scalar TARPNetwork.node[0].wlan[0].mac linkBroken:count 0
attr interpolationmode none
attr source linkBroken
attr title "link break, count"
statistic TARPNetwork.node[0].wlan[0].radio minSnir:histogram
field count 0
field mean nan
field stddev nan
field min nan
field max nan
field sum 0
field sqrsum 0
attr source minimumSnir(packetSentToUpper)
attr title "Min SNIR, histogram"
bin	-inf	0
bin	0	0
bin	1	0
statistic TARPNetwork.node[0].wlan[0].radio packetErrorRate:histogram
field count 374
field mean 0.76470588235294
field stddev 0.42475073165372
field min 0
field max 1
field sum 286
field sqrsum 286
attr source packetErrorRate(packetSentToUpper)
attr title "Packet error rate, histogram"
bin	-inf	0
bin	0	88
bin	1	286
bin	2	0
statistic TARPNetwork.node[0].wlan[0].radio bitErrorRate:histogram
field count 374
field mean 0.76470588235294
field stddev 0.42475073165372
field min 0
field max 1
field sum 286
field sqrsum 286
attr source bitErrorRate(packetSentToUpper)
attr title "Bit error rate, histogram"
bin	-inf	0
bin	0	88
bin	1	286
bin	2	0
statistic TARPNetwork.node[0].wlan[0].radio symbolErrorRate:histogram
field count 374
field mean 0.76470588235294
field stddev 0.42475073165372
field min 0
field max 1
field sum 286
field sqrsum 286
attr source symbolErrorRate(packetSentToUpper)
attr title "Symbol error rate, histogram"
bin	-inf	0
bin	0	88
bin	1	286
bin	2	0
scalar TARPNetwork.node[0].wlan[0].radio transmissionState:count 259
attr interpolationmode sample-hold
attr source transmissionStateChanged
attr title "Radio transmission state, count"
scalar TARPNetwork.node[0].wlan[0].radio receptionState:count 903
attr interpolationmode sample-hold
attr source receptionStateChanged
attr title "Radio reception state, count"
scalar TARPNetwork.node[0].wlan[0].radio radioMode:count 3
attr interpolationmode sample-hold
attr source radioModeChanged
attr title "Radio mode, count"
scalar TARPNetwork.node[0].generic.np nbDataPacketsReceived 0
scalar TARPNetwork.node[0].generic.np nbDataPacketsSent 0
scalar TARPNetwork.node[0].generic.np nbDataPacketsForwarded 129
scalar TARPNetwork.node[0].generic.np meanNbHops 0
scalar TARPNetwork.node[0].udp packetReceived:count 0
attr interpolationmode none
attr source packetReceived
attr title "packets received, count"
scalar TARPNetwork.node[0].udp packetReceived:sum(packetBytes) 0
attr interpolationmode none
attr source packetReceived
attr title "packets received, sum(packetBytes)"
scalar TARPNetwork.node[0].udp packetSent:count 0
attr interpolationmode none
attr source packetSent
attr title "packets sent, count"
scalar TARPNetwork.node[0].udp packetSent:sum(packetBytes) 0
attr interpolationmode none
attr source packetSent
attr title "packets sent, sum(packetBytes)"
scalar TARPNetwork.node[0].udp passedUpPk:count 0
attr interpolationmode none
attr source packetSentToUpper
attr title "packets passed up, count"
scalar TARPNetwork.node[0].udp droppedPkWrongPort:count 0
attr interpolationmode none
attr source packetDropReasonIsNoPortFound(packetDropped)
attr title "packets dropped (wrong port), count"
scalar TARPNetwork.node[0].udp droppedPkBadChecksum:count 0
attr interpolationmode none
attr source packetDropReasonIsIncorrectlyReceived(packetDropped)
attr title "packets dropped (checksum error), count"
scalar TARPNetwork.node[1].lo[0].lo rcvdPkFromHl:count 0
attr interpolationmode none
attr source packetReceivedFromUpper
attr title "packets received from higher layer, count"
scalar TARPNetwork.node[1].lo[0].lo rcvdPkFromHl:sum(packetBytes) 0
attr interpolationmode none
attr source packetReceivedFromUpper
attr title "packets received from higher layer, sum(packetBytes)"
scalar TARPNetwork.node[1].lo[0].lo passedUpPk:count 0
attr interpolationmode none
attr source packetSentToUpper
attr title "packets passed to higher layer, count"
scalar TARPNetwork.node[1].lo[0].lo passedUpPk:sum(packetBytes) 0
attr interpolationmode none
attr source packetSentToUpper
attr title "packets passed to higher layer, sum(packetBytes)"
scalar TARPNetwork.node[1].wlan[0].mac.queue packetPopped:count 143
attr interpolationmode none
attr title "packet popped, count"
scalar TARPNetwork.node[1].wlan[0].mac.queue packetPopped:sum(packetBytes) 10868
attr interpolationmode none
attr title "packet popped, sum(packetBytes)"
statistic TARPNetwork.node[1].wlan[0].mac.queue queueingTime:histogram
field count 143
field mean 0
field stddev 0
field min 0
field max 0
field sum 0
field sqrsum 0
attr interpolationmode none
attr source queueingTime(packetPopped)
attr title "queueing times, histogram"
attr unit s
bin	-inf	0
bin	-0.5	0
bin	-0.48	0
bin	-0.46	0
bin	-0.44	0
bin	-0.42	0
bin	-0.4	0
bin	-0.38	0
bin	-0.36	0
bin	-0.34	0
bin	-0.32	0
bin	-0.3	0
bin	-0.28	0
bin	-0.26	0
bin	-0.24	0
bin	-0.22	0
bin	-0.2	0
bin	-0.18	0
bin	-0.16	0
bin	-0.14	0
bin	-0.12	0
bin	-0.1	0
bin	-0.08	0
bin	-0.06	0
bin	-0.04	0
bin	-0.02	0
bin	0	143
bin	0.02	0
bin	0.04	0
bin	0.06	0
bin	0.08	0
bin	0.1	0
bin	0.12	0
bin	0.14	0
bin	0.16	0
bin	0.18	0
bin	0.2	0
bin	0.22	0
bin	0.24	0
bin	0.26	0
bin	0.28	0
bin	0.3	0
bin	0.32	0
bin	0.34	0
bin	0.36	0
bin	0.38	0
bin	0.4	0
bin	0.42	0
bin	0.44	0
bin	0.46	0
bin	0.48	0
bin	0.5	0
scalar TARPNetwork.node[1].wlan[0].mac.queue queueLength:max 1
attr interpolationmode sample-hold
attr source "count(packetPushed) - count(packetPopped) - count(packetRemoved) - count(packetDropped)"
attr title "queue length, max"
scalar TARPNetwork.node[1].wlan[0].mac.queue queueLength:timeavg 0
attr interpolationmode sample-hold
attr source "count(packetPushed) - count(packetPopped) - count(packetRemoved) - count(packetDropped)"
attr title "queue length, timeavg"
scalar TARPNetwork.node[1].wlan[0].mac.queue packetPushed:count 143
attr interpolationmode none
attr title "packet pushed, count"
scalar TARPNetwork.node[1].wlan[0].mac.queue packetPushed:sum(packetBytes) 10868
attr interpolationmode none
attr title "packet pushed, sum(packetBytes)"
scalar TARPNetwork.node[1].wlan[0].mac.queue packetDropQueueOverflow:count 0
attr interpolationmode none
attr source packetDropReasonIsQueueOverflow(packetDropped)
attr title "packet drops: queue overflow, count"
scalar TARPNetwork.node[1].wlan[0].mac.queue packetDropQueueOverflow:sum(packetBytes) 0
attr interpolationmode none
attr source packetDropReasonIsQueueOverflow(packetDropped)
attr title "packet drops: queue overflow, sum(packetBytes)"
scalar TARPNetwork.node[1].wlan[0].mac.queue packetRemoved:count 0
attr interpolationmode none
attr title "packets removed, count"
scalar TARPNetwork.node[1].wlan[0].mac.queue packetRemoved:sum(packetBytes) 0
attr interpolationmode none
attr title "packets removed, sum(packetBytes)"
scalar TARPNetwork.node[1].wlan[0].mac rcvdPkFromLl:count 385
attr interpolationmode none
attr source packetReceivedFromLower
attr title "packets received from lower layer, count"
scalar TARPNetwork.node[1].wlan[0].mac rcvdPkFromLl:sum(packetBytes) 35420
attr interpolationmode none
attr source packetReceivedFromLower
attr title "packets received from lower layer, sum(packetBytes)"
scalar TARPNetwork.node[1].wlan[0].mac sentDownPk:count 143
attr interpolationmode none
attr source packetSentToLower
attr title "packets sent to lower layer, count"
scalar TARPNetwork.node[1].wlan[0].mac sentDownPk:sum(packetBytes) 13156
attr interpolationmode none
attr source packetSentToLower
attr title "packets sent to lower layer, sum(packetBytes)"
scalar TARPNetwork.node[1].wlan[0].mac rcvdPkFromHl:count 143
attr interpolationmode none
attr source packetReceivedFromUpper
attr title "packets received from higher layer, count"
scalar TARPNetwork.node[1].wlan[0].mac rcvdPkFromHl:sum(packetBytes) 10868
attr interpolationmode none
attr source packetReceivedFromUpper
attr title "packets received from higher layer, sum(packetBytes)"
scalar TARPNetwork.node[1].wlan[0].mac passedUpPk:count 385
attr interpolationmode none
attr source packetSentToUpper
attr title "packets passed to higher layer, count"
scalar TARPNetwork.node[1].wlan[0].mac passedUpPk:sum(packetBytes) 29260
attr interpolationmode none
attr source packetSentToUpper
attr title "packets passed to higher layer, sum(packetBytes)"
scalar TARPNetwork.node[1].wlan[0].mac packetDropIncorrectlyReceived:count 0
attr interpolationmode none
attr source packetDropReasonIsIncorrectlyReceived(packetDropped)
attr title "packet drop: incorrectly received, count"
scalar TARPNetwork.node[1].wlan[0].mac packetDropIncorrectlyReceived:sum(packetBytes) 0
attr interpolationmode none
attr source packetDropReasonIsIncorrectlyReceived(packetDropped)
attr title "packet drop: incorrectly received, sum(packetBytes)"
scalar TARPNetwork.node[1].wlan[0].mac packetDropInterfaceDown:count 0
attr interpolationmode none
attr source packetDropReasonIsInterfaceDown(packetDropped)
attr title "packet drop: interface down, count"
scalar TARPNetwork.node[1].wlan[0].mac packetDropInterfaceDown:sum(packetBytes) 0
attr interpolationmode none
attr source packetDropReasonIsInterfaceDown(packetDropped)
attr title "packet drop: interface down, sum(packetBytes)"
scalar TARPNetwork.node[1].wlan[0].mac packetDropNotAddressedToUs:count 0
attr interpolationmode none
attr source packetDropReasonIsNotAddressedToUs(packetDropped)
attr title "packet drop: not addressed to us, count"
scalar TARPNetwork.node[1].wlan[0].mac packetDropNotAddressedToUs:sum(packetBytes) 0
attr interpolationmode none
attr source packetDropReasonIsNotAddressedToUs(packetDropped)
attr title "packet drop: not addressed to us, sum(packetBytes)"
scalar TARPNetwork.node[1].wlan[0].mac linkBroken:count 0
attr interpolationmode none
attr source linkBroken
attr title "link break, count"
statistic TARPNetwork.node[1].wlan[0].radio minSnir:histogram
field count 0
field mean nan
field stddev nan
field min nan
field max nan
field sum 0
field sqrsum 0
attr source minimumSnir(packetSentToUpper)
attr title "Min SNIR, histogram"
bin	-inf	0
bin	0	0
bin	1	0
statistic TARPNetwork.node[1].wlan[0].radio packetErrorRate:histogram
field count 385
field mean 0.76103896103896
field stddev 0.42700380687091
field min 0
field max 1
field sum 293
field sqrsum 293
attr source packetErrorRate(packetSentToUpper)
attr title "Packet error rate, histogram"
bin	-inf	0
bin	0	92
bin	1	293
bin	2	0
statistic TARPNetwork.node[1].wlan[0].radio bitErrorRate:histogram
field count 385
field mean 0.76103896103896
field stddev 0.42700380687091
field min 0
field max 1
field sum 293
field sqrsum 293
attr source bitErrorRate(packetSentToUpper)
attr title "Bit error rate, histogram"
bin	-inf	0
bin	0	92
bin	1	293
bin	2	0
statistic TARPNetwork.node[1].wlan[0].radio symbolErrorRate:histogram
field count 385
field mean 0.76103896103896
field stddev 0.42700380687091
field min 0
field max 1
field sum 293
field sqrsum 293
attr source symbolErrorRate(packetSentToUpper)
attr title "Symbol error rate, histogram"
bin	-inf	0
bin	0	92
bin	1	293
bin	2	0
scalar TARPNetwork.node[1].wlan[0].radio transmissionState:count 287
attr interpolationmode sample-hold
attr source transmissionStateChanged
attr title "Radio transmission state, count"
scalar TARPNetwork.node[1].wlan[0].radio receptionState:count 918
attr interpolationmode sample-hold
attr source receptionStateChanged
attr title "Radio reception state, count"
scalar TARPNetwork.node[1].wlan[0].radio radioMode:count 3
attr interpolationmode sample-hold
attr source radioModeChanged
attr title "Radio mode, count"
scalar TARPNetwork.node[1].generic.np nbDataPacketsReceived 0
scalar TARPNetwork.node[1].generic.np nbDataPacketsSent 0
scalar TARPNetwork.node[1].generic.np nbDataPacketsForwarded 143
scalar TARPNetwork.node[1].generic.np meanNbHops 0
scalar TARPNetwork.node[1].udp packetReceived:count 0
attr interpolationmode none
attr source packetReceived
attr title "packets received, count"
scalar TARPNetwork.node[1].udp packetReceived:sum(packetBytes) 0
attr interpolationmode none
attr source packetReceived
attr title "packets received, sum(packetBytes)"
scalar TARPNetwork.node[1].udp packetSent:count 0
attr interpolationmode none
attr source packetSent
attr title "packets sent, count"
scalar TARPNetwork.node[1].udp packetSent:sum(packetBytes) 0
attr interpolationmode none
attr source packetSent
attr title "packets sent, sum(packetBytes)"
scalar TARPNetwork.node[1].udp passedUpPk:count 0
attr interpolationmode none
attr source packetSentToUpper
attr title "packets passed up, count"
scalar TARPNetwork.node[1].udp droppedPkWrongPort:count 0
attr interpolationmode none
attr source packetDropReasonIsNoPortFound(packetDropped)
attr title "packets dropped (wrong port), count"
scalar TARPNetwork.node[1].udp droppedPkBadChecksum:count 0
attr interpolationmode none
attr source packetDropReasonIsIncorrectlyReceived(packetDropped)
attr title "packets dropped (checksum error), count"
scalar TARPNetwork.node[2].lo[0].lo rcvdPkFromHl:count 0
attr interpolationmode none
attr source packetReceivedFromUpper
attr title "packets received from higher layer, count"
scalar TARPNetwork.node[2].lo[0].lo rcvdPkFromHl:sum(packetBytes) 0
attr interpolationmode none
attr source packetReceivedFromUpper
attr title "packets received from higher layer, sum(packetBytes)"
scalar TARPNetwork.node[2].lo[0].lo passedUpPk:count 0
attr interpolationmode none
attr source packetSentToUpper
attr title "packets passed to higher layer, count"
scalar TARPNetwork.node[2].lo[0].lo passedUpPk:sum(packetBytes) 0
attr interpolationmode none
attr source packetSentToUpper
attr title "packets passed to higher layer, sum(packetBytes)"
scalar TARPNetwork.node[2].wlan[0].mac.queue packetPopped:count 155
attr interpolationmode none
attr title "packet popped, count"
scalar TARPNetwork.node[2].wlan[0].mac.queue packetPopped:sum(packetBytes) 11780
attr interpolationmode none
attr title "packet popped, sum(packetBytes)"
statistic TARPNetwork.node[2].wlan[0].mac.queue queueingTime:histogram
field count 155
field mean 0
field stddev 0
field min 0
field max 0
field sum 0
field sqrsum 0
attr interpolationmode none
attr source queueingTime(packetPopped)
attr title "queueing times, histogram"
attr unit s
bin	-inf	0
bin	-0.5	0
bin	-0.48	0
bin	-0.46	0
bin	-0.44	0
bin	-0.42	0
bin	-0.4	0
bin	-0.38	0
bin	-0.36	0
bin	-0.34	0
bin	-0.32	0
bin	-0.3	0
bin	-0.28	0
bin	-0.26	0
bin	-0.24	0
bin	-0.22	0
bin	-0.2	0
bin	-0.18	0
bin	-0.16	0
bin	-0.14	0
bin	-0.12	0
bin	-0.1	0
bin	-0.08	0
bin	-0.06	0
bin	-0.04	0
bin	-0.02	0
bin	0	155
bin	0.02	0
bin	0.04	0
bin	0.06	0
bin	0.08	0
bin	0.1	0
bin	0.12	0
bin	0.14	0
bin	0.16	0
bin	0.18	0
bin	0.2	0
bin	0.22	0
bin	0.24	0
bin	0.26	0
bin	0.28	0
bin	0.3	0
bin	0.32	0
bin	0.34	0
bin	0.36	0
bin	0.38	0
bin	0.4	0
bin	0.42	0
bin	0.44	0
bin	0.46	0
bin	0.48	0
bin	0.5	0
scalar TARPNetwork.node[2].wlan[0].mac.queue queueLength:max 1
attr interpolationmode sample-hold
attr source "count(packetPushed) - count(packetPopped) - count(packetRemoved) - count(packetDropped)"
attr title "queue length, max"
scalar TARPNetwork.node[2].wlan[0].mac.queue queueLength:timeavg 0
attr interpolationmode sample-hold
attr source "count(packetPushed) - count(packetPopped) - count(packetRemoved) - count(packetDropped)"
attr title "queue length, timeavg"
scalar TARPNetwork.node[2].wlan[0].mac.queue packetPushed:count 155
attr interpolationmode none
attr title "packet pushed, count"
scalar TARPNetwork.node[2].wlan[0].mac.queue packetPushed:sum(packetBytes) 11780
attr interpolationmode none
attr title "packet pushed, sum(packetBytes)"
scalar TARPNetwork.node[2].wlan[0].mac.queue packetDropQueueOverflow:count 0
attr interpolationmode none
attr source packetDropReasonIsQueueOverflow(packetDropped)
attr title "packet drops: queue overflow, count"
scalar TARPNetwork.node[2].wlan[0].mac.queue packetDropQueueOverflow:sum(packetBytes) 0
attr interpolationmode none
attr source packetDropReasonIsQueueOverflow(packetDropped)
attr title "packet drops: queue overflow, sum(packetBytes)"
scalar TARPNetwork.node[2].wlan[0].mac.queue packetRemoved:count 0
attr interpolationmode none
attr title "packets removed, count"
scalar TARPNetwork.node[2].wlan[0].mac.queue packetRemoved:sum(packetBytes) 0
attr interpolationmode none
attr title "packets removed, sum(packetBytes)"
scalar TARPNetwork.node[2].wlan[0].mac rcvdPkFromLl:count 412
attr interpolationmode none
attr source packetReceivedFromLower
attr title "packets received from lower layer, count"
scalar TARPNetwork.node[2].wlan[0].mac rcvdPkFromLl:sum(packetBytes) 37904
attr interpolationmode none
attr source packetReceivedFromLower
attr title "packets received from lower layer, sum(packetBytes)"
scalar TARPNetwork.node[2].wlan[0].mac sentDownPk:count 155
attr interpolationmode none
attr source packetSentToLower
attr title "packets sent to lower layer, count"
scalar TARPNetwork.node[2].wlan[0].mac sentDownPk:sum(packetBytes) 14260
attr interpolationmode none
attr source packetSentToLower
attr title "packets sent to lower layer, sum(packetBytes)"
scalar TARPNetwork.node[2].wlan[0].mac rcvdPkFromHl:count 155
attr interpolationmode none
attr source packetReceivedFromUpper
attr title "packets received from higher layer, count"
scalar TARPNetwork.node[2].wlan[0].mac rcvdPkFromHl:sum(packetBytes) 11780
attr interpolationmode none
attr source packetReceivedFromUpper
attr title "packets received from higher layer, sum(packetBytes)"
scalar TARPNetwork.node[2].wlan[0].mac passedUpPk:count 412
attr interpolationmode none
attr source packetSentToUpper
attr title "packets passed to higher layer, count"
scalar TARPNetwork.node[2].wlan[0].mac passedUpPk:sum(packetBytes) 31312
attr interpolationmode none
attr source packetSentToUpper
attr title "packets passed to higher layer, sum(packetBytes)"
scalar TARPNetwork.node[2].wlan[0].mac packetDropIncorrectlyReceived:count 0
attr interpolationmode none
attr source packetDropReasonIsIncorrectlyReceived(packetDropped)
attr title "packet drop: incorrectly received, count"
scalar TARPNetwork.node[2].wlan[0].mac packetDropIncorrectlyReceived:sum(packetBytes) 0
attr interpolationmode none
attr source packetDropReasonIsIncorrectlyReceived(packetDropped)
attr title "packet drop: incorrectly received, sum(packetBytes)"
scalar TARPNetwork.node[2].wlan[0].mac packetDropInterfaceDown:count 0
attr interpolationmode none
attr source packetDropReasonIsInterfaceDown(packetDropped)
attr title "packet drop: interface down, count"
scalar TARPNetwork.node[2].wlan[0].mac packetDropInterfaceDown:sum(packetBytes) 0
attr interpolationmode none
attr source packetDropReasonIsInterfaceDown(packetDropped)
attr title "packet drop: interface down, sum(packetBytes)"
scalar TARPNetwork.node[2].wlan[0].mac packetDropNotAddressedToUs:count 0
attr interpolationmode none
attr source packetDropReasonIsNotAddressedToUs(packetDropped)
attr title "packet drop: not addressed to us, count"
scalar TARPNetwork.node[2].wlan[0].mac packetDropNotAddressedToUs:sum(packetBytes) 0
attr interpolationmode none
attr source packetDropReasonIsNotAddressedToUs(packetDropped)
attr title "packet drop: not addressed to us, sum(packetBytes)"
scalar TARPNetwork.node[2].wlan[0].mac linkBroken:count 0
attr interpolationmode none
attr source linkBroken
attr title "link break, count"
statistic TARPNetwork.node[2].wlan[0].radio minSnir:histogram
field count 0
field mean nan
field stddev nan
field min nan
field max nan
field sum 0
field sqrsum 0
attr source minimumSnir(packetSentToUpper)
attr title "Min SNIR, histogram"
bin	-inf	0
bin	0	0
bin	1	0
statistic TARPNetwork.node[2].wlan[0].radio packetErrorRate:histogram
field count 412
field mean 0.74271844660194
field stddev 0.43766732730609
field min 0
field max 1
field sum 306
field sqrsum 306
attr source packetErrorRate(packetSentToUpper)
attr title "Packet error rate, histogram"
bin	-inf	0
bin	0	106
bin	1	306
bin	2	0
statistic TARPNetwork.node[2].wlan[0].radio bitErrorRate:histogram
field count 412
field mean 0.74271844660194
field stddev 0.43766732730609
field min 0
field max 1
field sum 306
field sqrsum 306
attr source bitErrorRate(packetSentToUpper)
attr title "Bit error rate, histogram"
bin	-inf	0
bin	0	106
bin	1	306
bin	2	0
statistic TARPNetwork.node[2].wlan[0].radio symbolErrorRate:histogram
field count 412
field mean 0.74271844660194
field stddev 0.43766732730609
field min 0
field max 1
field sum 306
field sqrsum 306
attr source symbolErrorRate(packetSentToUpper)
attr title "Symbol error rate, histogram"
bin	-inf	0
bin	0	106
bin	1	306
bin	2	0
scalar TARPNetwork.node[2].wlan[0].radio transmissionState:count 311
attr interpolationmode sample-hold
attr source transmissionStateChanged
attr title "Radio transmission state, count"
scalar TARPNetwork.node[2].wlan[0].radio receptionState:count 1021
attr interpolationmode sample-hold
attr source receptionStateChanged
attr title "Radio reception state, count"
scalar TARPNetwork.node[2].wlan[0].radio radioMode:count 3
attr interpolationmode sample-hold
attr source radioModeChanged
attr title "Radio mode, count"
scalar TARPNetwork.node[2].generic.np nbDataPacketsReceived 0
scalar TARPNetwork.node[2].generic.np nbDataPacketsSent 0
scalar TARPNetwork.node[2].generic.np nbDataPacketsForwarded 155
scalar TARPNetwork.node[2].generic.np meanNbHops 0
scalar TARPNetwork.node[2].udp packetReceived:count 0
attr interpolationmode none
attr source packetReceived
attr title "packets received, count"
scalar TARPNetwork.node[2].udp packetReceived:sum(packetBytes) 0
attr interpolationmode none
attr source packetReceived
attr title "packets received, sum(packetBytes)"
scalar TARPNetwork.node[2].udp packetSent:count 0
attr interpolationmode none
attr source packetSent
attr title "packets sent, count"
scalar TARPNetwork.node[2].udp packetSent:sum(packetBytes) 0
attr interpolationmode none
attr source packetSent
attr title "packets sent, sum(packetBytes)"
scalar TARPNetwork.node[2].udp passedUpPk:count 0
attr interpolationmode none
attr source packetSentToUpper
attr title "packets passed up, count"
scalar TARPNetwork.node[2].udp droppedPkWrongPort:count 0
attr interpolationmode none
attr source packetDropReasonIsNoPortFound(packetDropped)
attr title "packets dropped (wrong port), count"
scalar TARPNetwork.node[2].udp droppedPkBadChecksum:count 0
attr interpolationmode none
attr source packetDropReasonIsIncorrectlyReceived(packetDropped)
attr title "packets dropped (checksum error), count"
scalar TARPNetwork.node[3].lo[0].lo rcvdPkFromHl:count 0
attr interpolationmode none
attr source packetReceivedFromUpper
attr title "packets received from higher layer, count"
scalar TARPNetwork.node[3].lo[0].lo rcvdPkFromHl:sum(packetBytes) 0
attr interpolationmode none
attr source packetReceivedFromUpper
attr title "packets received from higher layer, sum(packetBytes)"
scalar TARPNetwork.node[3].lo[0].lo passedUpPk:count 0
attr interpolationmode none
attr source packetSentToUpper
attr title "packets passed to higher layer, count"
scalar TARPNetwork.node[3].lo[0].lo passedUpPk:sum(packetBytes) 0
attr interpolationmode none
attr source packetSentToUpper
attr title "packets passed to higher layer, sum(packetBytes)"
scalar TARPNetwork.node[3].wlan[0].mac.queue packetPopped:count 155
attr interpolationmode none
attr title "packet popped, count"
scalar TARPNetwork.node[3].wlan[0].mac.queue packetPopped:sum(packetBytes) 11780
attr interpolationmode none
attr title "packet popped, sum(packetBytes)"
statistic TARPNetwork.node[3].wlan[0].mac.queue queueingTime:histogram
field count 155
field mean 0
field stddev 0
field min 0
field max 0
field sum 0
field sqrsum 0
attr interpolationmode none
attr source queueingTime(packetPopped)
attr title "queueing times, histogram"
attr unit s
bin	-inf	0
bin	-0.5	0
bin	-0.48	0
bin	-0.46	0
bin	-0.44	0
bin	-0.42	0
bin	-0.4	0
bin	-0.38	0
bin	-0.36	0
bin	-0.34	0
bin	-0.32	0
bin	-0.3	0
bin	-0.28	0
bin	-0.26	0
bin	-0.24	0
bin	-0.22	0
bin	-0.2	0
bin	-0.18	0
bin	-0.16	0
bin	-0.14	0
bin	-0.12	0
bin	-0.1	0
bin	-0.08	0
bin	-0.06	0
bin	-0.04	0
bin	-0.02	0
bin	0	155
bin	0.02	0
bin	0.04	0
bin	0.06	0
bin	0.08	0
bin	0.1	0
bin	0.12	0
bin	0.14	0
bin	0.16	0
bin	0.18	0
bin	0.2	0
bin	0.22	0
bin	0.24	0
bin	0.26	0
bin	0.28	0
bin	0.3	0
bin	0.32	0
bin	0.34	0
bin	0.36	0
bin	0.38	0
bin	0.4	0
bin	0.42	0
bin	0.44	0
bin	0.46	0
bin	0.48	0
bin	0.5	0
scalar TARPNetwork.node[3].wlan[0].mac.queue queueLength:max 1
attr interpolationmode sample-hold
attr source "count(packetPushed) - count(packetPopped) - count(packetRemoved) - count(packetDropped)"
attr title "queue length, max"
scalar TARPNetwork.node[3].wlan[0].mac.queue queueLength:timeavg 0
attr interpolationmode sample-hold
attr source "count(packetPushed) - count(packetPopped) - count(packetRemoved) - count(packetDropped)"
attr title "queue length, timeavg"
scalar TARPNetwork.node[3].wlan[0].mac.queue packetPushed:count 155
attr interpolationmode none
attr title "packet pushed, count"
scalar TARPNetwork.node[3].wlan[0].mac.queue packetPushed:sum(packetBytes) 11780
attr interpolationmode none
attr title "packet pushed, sum(packetBytes)"
scalar TARPNetwork.node[3].wlan[0].mac.queue packetDropQueueOverflow:count 0
attr interpolationmode none
attr source packetDropReasonIsQueueOverflow(packetDropped)
attr title "packet drops: queue overflow, count"
scalar TARPNetwork.node[3].wlan[0].mac.queue packetDropQueueOverflow:sum(packetBytes) 0
attr interpolationmode none
attr source packetDropReasonIsQueueOverflow(packetDropped)
attr title "packet drops: queue overflow, sum(packetBytes)"
scalar TARPNetwork.node[3].wlan[0].mac.queue packetRemoved:count 0
attr interpolationmode none
attr title "packets removed, count"
scalar TARPNetwork.node[3].wlan[0].mac.queue packetRemoved:sum(packetBytes) 0
attr interpolationmode none
attr title "packets removed, sum(packetBytes)"
scalar TARPNetwork.node[3].wlan[0].mac rcvdPkFromLl:count 449
attr interpolationmode none
attr source packetReceivedFromLower
attr title "packets received from lower layer, count"
scalar TARPNetwork.node[3].wlan[0].mac rcvdPkFromLl:sum(packetBytes) 41308
attr interpolationmode none
attr source packetReceivedFromLower
attr title "packets received from lower layer, sum(packetBytes)"
scalar TARPNetwork.node[3].wlan[0].mac sentDownPk:count 155
attr interpolationmode none
attr source packetSentToLower
attr title "packets sent to lower layer, count"
scalar TARPNetwork.node[3].wlan[0].mac sentDownPk:sum(packetBytes) 14260
attr interpolationmode none
attr source packetSentToLower
attr title "packets sent to lower layer, sum(packetBytes)"
scalar TARPNetwork.node[3].wlan[0].mac rcvdPkFromHl:count 155
attr interpolationmode none
attr source packetReceivedFromUpper
attr title "packets received from higher layer, count"
scalar TARPNetwork.node[3].wlan[0].mac rcvdPkFromHl:sum(packetBytes) 11780
attr interpolationmode none
attr source packetReceivedFromUpper
attr title "packets received from higher layer, sum(packetBytes)"
scalar TARPNetwork.node[3].wlan[0].mac passedUpPk:count 449
attr interpolationmode none
attr source packetSentToUpper
attr title "packets passed to higher layer, count"
scalar TARPNetwork.node[3].wlan[0].mac passedUpPk:sum(packetBytes) 34124
attr interpolationmode none
attr source packetSentToUpper
attr title "packets passed to higher layer, sum(packetBytes)"
scalar TARPNetwork.node[3].wlan[0].mac packetDropIncorrectlyReceived:count 0
attr interpolationmode none
attr source packetDropReasonIsIncorrectlyReceived(packetDropped)
attr title "packet drop: incorrectly received, count"
scalar TARPNetwork.node[3].wlan[0].mac packetDropIncorrectlyReceived:sum(packetBytes) 0
attr interpolationmode none
attr source packetDropReasonIsIncorrectlyReceived(packetDropped)
attr title "packet drop: incorrectly received, sum(packetBytes)"
scalar TARPNetwork.node[3].wlan[0].mac packetDropInterfaceDown:count 0
attr interpolationmode none
attr source packetDropReasonIsInterfaceDown(packetDropped)
attr title "packet drop: interface down, count"
scalar TARPNetwork.node[3].wlan[0].mac packetDropInterfaceDown:sum(packetBytes) 0
attr interpolationmode none
attr source packetDropReasonIsInterfaceDown(packetDropped)
attr title "packet drop: interface down, sum(packetBytes)"
scalar TARPNetwork.node[3].wlan[0].mac packetDropNotAddressedToUs:count 0
attr interpolationmode none
attr source packetDropReasonIsNotAddressedToUs(packetDropped)
attr title "packet drop: not addressed to us, count"
scalar TARPNetwork.node[3].wlan[0].mac packetDropNotAddressedToUs:sum(packetBytes) 0
attr interpolationmode none
attr source packetDropReasonIsNotAddressedToUs(packetDropped)
attr title "packet drop: not addressed to us, sum(packetBytes)"
scalar TARPNetwork.node[3].wlan[0].mac linkBroken:count 0
attr interpolationmode none
attr source linkBroken
attr title "link break, count"
statistic TARPNetwork.node[3].wlan[0].radio minSnir:histogram
field count 0
field mean nan
field stddev nan
field min nan
field max nan
field sum 0
field sqrsum 0
attr source minimumSnir(packetSentToUpper)
attr title "Min SNIR, histogram"
bin	-inf	0
bin	0	0
bin	1	0
statistic TARPNetwork.node[3].wlan[0].radio packetErrorRate:histogram
field count 449
field mean 0.69042316258352
field stddev 0.46283486815125
field min 0
field max 1
field sum 310
field sqrsum 310
attr source packetErrorRate(packetSentToUpper)
attr title "Packet error rate, histogram"
bin	-inf	0
bin	0	139
bin	1	310
bin	2	0
statistic TARPNetwork.node[3].wlan[0].radio bitErrorRate:histogram
field count 449
field mean 0.69042316258352
field stddev 0.46283486815125
field min 0
field max 1
field sum 310
field sqrsum 310
attr source bitErrorRate(packetSentToUpper)
attr title "Bit error rate, histogram"
bin	-inf	0
bin	0	139
bin	1	310
bin	2	0
statistic TARPNetwork.node[3].wlan[0].radio symbolErrorRate:histogram
field count 449
field mean 0.69042316258352
field stddev 0.46283486815125
field min 0
field max 1
field sum 310
field sqrsum 310
attr source symbolErrorRate(packetSentToUpper)
attr title "Symbol error rate, histogram"
bin	-inf	0
bin	0	139
bin	1	310
bin	2	0
scalar TARPNetwork.node[3].wlan[0].radio transmissionState:count 311
attr interpolationmode sample-hold
attr source transmissionStateChanged
attr title "Radio transmission state, count"
scalar TARPNetwork.node[3].wlan[0].radio receptionState:count 1166
attr interpolationmode sample-hold
attr source receptionStateChanged
attr title "Radio reception state, count"
scalar TARPNetwork.node[3].wlan[0].radio radioMode:count 3
attr interpolationmode sample-hold
attr source radioModeChanged
attr title "Radio mode, count"
scalar TARPNetwork.node[3].generic.np nbDataPacketsReceived 0
scalar TARPNetwork.node[3].generic.np nbDataPacketsSent 0
scalar TARPNetwork.node[3].generic.np nbDataPacketsForwarded 155
scalar TARPNetwork.node[3].generic.np meanNbHops 0
scalar TARPNetwork.node[3].udp packetReceived:count 0
attr interpolationmode none
attr source packetReceived
attr title "packets received, count"
scalar TARPNetwork.node[3].udp packetReceived:sum(packetBytes) 0
attr interpolationmode none
attr source packetReceived
attr title "packets received, sum(packetBytes)"
scalar TARPNetwork.node[3].udp packetSent:count 0
attr interpolationmode none
attr source packetSent
attr title "packets sent, count"
scalar TARPNetwork.node[3].udp packetSent:sum(packetBytes) 0
attr interpolationmode none
attr source packetSent
attr title "packets sent, sum(packetBytes)"
scalar TARPNetwork.node[3].udp passedUpPk:count 0
attr interpolationmode none
attr source packetSentToUpper
attr title "packets passed up, count"
scalar TARPNetwork.node[3].udp droppedPkWrongPort:count 0
attr interpolationmode none
attr source packetDropReasonIsNoPortFound(packetDropped)
attr title "packets dropped (wrong port), count"
scalar TARPNetwork.node[3].udp droppedPkBadChecksum:count 0
attr interpolationmode none
attr source packetDropReasonIsIncorrectlyReceived(packetDropped)
attr title "packets dropped (checksum error), count"
scalar TARPNetwork.node[4].lo[0].lo rcvdPkFromHl:count 0
attr interpolationmode none
attr source packetReceivedFromUpper
attr title "packets received from higher layer, count"
scalar TARPNetwork.node[4].lo[0].lo rcvdPkFromHl:sum(packetBytes) 0
attr interpolationmode none
attr source packetReceivedFromUpper
attr title "packets received from higher layer, sum(packetBytes)"
scalar TARPNetwork.node[4].lo[0].lo passedUpPk:count 0
attr interpolationmode none
attr source packetSentToUpper
attr title "packets passed to higher layer, count"
scalar TARPNetwork.node[4].lo[0].lo passedUpPk:sum(packetBytes) 0
attr interpolationmode none
attr source packetSentToUpper
attr title "packets passed to higher layer, sum(packetBytes)"
scalar TARPNetwork.node[4].wlan[0].mac.queue packetPopped:count 155
attr interpolationmode none
attr title "packet popped, count"
scalar TARPNetwork.node[4].wlan[0].mac.queue packetPopped:sum(packetBytes) 11780
attr interpolationmode none
attr title "packet popped, sum(packetBytes)"
statistic TARPNetwork.node[4].wlan[0].mac.queue queueingTime:histogram
field count 155
field mean 0
field stddev 0
field min 0
field max 0
field sum 0
field sqrsum 0
attr interpolationmode none
attr source queueingTime(packetPopped)
attr title "queueing times, histogram"
attr unit s
bin	-inf	0
bin	-0.5	0
bin	-0.48	0
bin	-0.46	0
bin	-0.44	0
bin	-0.42	0
bin	-0.4	0
bin	-0.38	0
bin	-0.36	0
bin	-0.34	0
bin	-0.32	0
bin	-0.3	0
bin	-0.28	0
bin	-0.26	0
bin	-0.24	0
bin	-0.22	0
bin	-0.2	0
bin	-0.18	0
bin	-0.16	0
bin	-0.14	0
bin	-0.12	0
bin	-0.1	0
bin	-0.08	0
bin	-0.06	0
bin	-0.04	0
bin	-0.02	0
bin	0	155
bin	0.02	0
bin	0.04	0
bin	0.06	0
bin	0.08	0
bin	0.1	0
bin	0.12	0
bin	0.14	0
bin	0.16	0
bin	0.18	0
bin	0.2	0
bin	0.22	0
bin	0.24	0
bin	0.26	0
bin	0.28	0
bin	0.3	0
bin	0.32	0
bin	0.34	0
bin	0.36	0
bin	0.38	0
bin	0.4	0
bin	0.42	0
bin	0.44	0
bin	0.46	0
bin	0.48	0
bin	0.5	0
scalar TARPNetwork.node[4].wlan[0].mac.queue queueLength:max 1
attr interpolationmode sample-hold
attr source "count(packetPushed) - count(packetPopped) - count(packetRemoved) - count(packetDropped)"
attr title "queue length, max"
scalar TARPNetwork.node[4].wlan[0].mac.queue queueLength:timeavg 0
attr interpolationmode sample-hold
attr source "count(packetPushed) - count(packetPopped) - count(packetRemoved) - count(packetDropped)"
attr title "queue length, timeavg"
scalar TARPNetwork.node[4].wlan[0].mac.queue packetPushed:count 155
attr interpolationmode none
attr title "packet pushed, count"
scalar TARPNetwork.node[4].wlan[0].mac.queue packetPushed:sum(packetBytes) 11780
attr interpolationmode none
attr title "packet pushed, sum(packetBytes)"
scalar TARPNetwork.node[4].wlan[0].mac.queue packetDropQueueOverflow:count 0
attr interpolationmode none
attr source packetDropReasonIsQueueOverflow(packetDropped)
attr title "packet drops: queue overflow, count"
scalar TARPNetwork.node[4].wlan[0].mac.queue packetDropQueueOverflow:sum(packetBytes) 0
attr interpolationmode none
attr source packetDropReasonIsQueueOverflow(packetDropped)
attr title "packet drops: queue overflow, sum(packetBytes)"
scalar TARPNetwork.node[4].wlan[0].mac.queue packetRemoved:count 0
attr interpolationmode none
attr title "packets removed, count"
scalar TARPNetwork.node[4].wlan[0].mac.queue packetRemoved:sum(packetBytes) 0
attr interpolationmode none
attr title "packets removed, sum(packetBytes)"
scalar TARPNetwork.node[4].wlan[0].mac rcvdPkFromLl:count 453
attr interpolationmode none
attr source packetReceivedFromLower
attr title "packets received from lower layer, count"
scalar TARPNetwork.node[4].wlan[0].mac rcvdPkFromLl:sum(packetBytes) 41676
attr interpolationmode none
attr source packetReceivedFromLower
attr title "packets received from lower layer, sum(packetBytes)"
scalar TARPNetwork.node[4].wlan[0].mac sentDownPk:count 155
attr interpolationmode none
attr source packetSentToLower
attr title "packets sent to lower layer, count"
scalar TARPNetwork.node[4].wlan[0].mac sentDownPk:sum(packetBytes) 14260
attr interpolationmode none
attr source packetSentToLower
attr title "packets sent to lower layer, sum(packetBytes)"
scalar TARPNetwork.node[4].wlan[0].mac rcvdPkFromHl:count 155
attr interpolationmode none
attr source packetReceivedFromUpper
attr title "packets received from higher layer, count"
scalar TARPNetwork.node[4].wlan[0].mac rcvdPkFromHl:sum(packetBytes) 11780
attr interpolationmode none
attr source packetReceivedFromUpper
attr title "packets received from higher layer, sum(packetBytes)"
scalar TARPNetwork.node[4].wlan[0].mac passedUpPk:count 453
attr interpolationmode none
attr source packetSentToUpper
attr title "packets passed to higher layer, count"
scalar TARPNetwork.node[4].wlan[0].mac passedUpPk:sum(packetBytes) 34428
attr interpolationmode none
attr source packetSentToUpper
attr title "packets passed to higher layer, sum(packetBytes)"
scalar TARPNetwork.node[4].wlan[0].mac packetDropIncorrectlyReceived:count 0
attr interpolationmode none
attr source packetDropReasonIsIncorrectlyReceived(packetDropped)
attr title "packet drop: incorrectly received, count"
scalar TARPNetwork.node[4].wlan[0].mac packetDropIncorrectlyReceived:sum(packetBytes) 0
attr interpolationmode none
attr source packetDropReasonIsIncorrectlyReceived(packetDropped)
attr title "packet drop: incorrectly received, sum(packetBytes)"
scalar TARPNetwork.node[4].wlan[0].mac packetDropInterfaceDown:count 0
attr interpolationmode none
attr source packetDropReasonIsInterfaceDown(packetDropped)
attr title "packet drop: interface down, count"
scalar TARPNetwork.node[4].wlan[0].mac packetDropInterfaceDown:sum(packetBytes) 0
attr interpolationmode none
attr source packetDropReasonIsInterfaceDown(packetDropped)
attr title "packet drop: interface down, sum(packetBytes)"
scalar TARPNetwork.node[4].wlan[0].mac packetDropNotAddressedToUs:count 0
attr interpolationmode none
attr source packetDropReasonIsNotAddressedToUs(packetDropped)
attr title "packet drop: not addressed to us, count"
scalar TARPNetwork.node[4].wlan[0].mac packetDropNotAddressedToUs:sum(packetBytes) 0
attr interpolationmode none
attr source packetDropReasonIsNotAddressedToUs(packetDropped)
attr title "packet drop: not addressed to us, sum(packetBytes)"
scalar TARPNetwork.node[4].wlan[0].mac linkBroken:count 0
attr interpolationmode none
attr source linkBroken
attr title "link break, count"
statistic TARPNetwork.node[4].wlan[0].radio minSnir:histogram
field count 0
field mean nan
field stddev nan
field min nan
field max nan
field sum 0
field sqrsum 0
attr source minimumSnir(packetSentToUpper)
attr title "Min SNIR, histogram"
bin	-inf	0
bin	0	0
bin	1	0
statistic TARPNetwork.node[4].wlan[0].radio packetErrorRate:histogram
field count 453
field mean 0.75275938189845
field stddev 0.43188476311628
field min 0
field max 1
field sum 341
field sqrsum 341
attr source packetErrorRate(packetSentToUpper)
attr title "Packet error rate, histogram"
bin	-inf	0
bin	0	112
bin	1	341
bin	2	0
statistic TARPNetwork.node[4].wlan[0].radio bitErrorRate:histogram
field count 453
field mean 0.75275938189845
field stddev 0.43188476311628
field min 0
field max 1
field sum 341
field sqrsum 341
attr source bitErrorRate(packetSentToUpper)
attr title "Bit error rate, histogram"
bin	-inf	0
bin	0	112
bin	1	341
bin	2	0
statistic TARPNetwork.node[4].wlan[0].radio symbolErrorRate:histogram
field count 453
field mean 0.75275938189845
field stddev 0.43188476311628
field min 0
field max 1
field sum 341
field sqrsum 341
attr source symbolErrorRate(packetSentToUpper)
attr title "Symbol error rate, histogram"
bin	-inf	0
bin	0	112
bin	1	341
bin	2	0
scalar TARPNetwork.node[4].wlan[0].radio transmissionState:count 311
attr interpolationmode sample-hold
attr source transmissionStateChanged
attr title "Radio transmission state, count"
scalar TARPNetwork.node[4].wlan[0].radio receptionState:count 1233
attr interpolationmode sample-hold
attr source receptionStateChanged
attr title "Radio reception state, count"
scalar TARPNetwork.node[4].wlan[0].radio radioMode:count 3
attr interpolationmode sample-hold
attr source radioModeChanged
attr title "Radio mode, count"
scalar TARPNetwork.node[4].generic.np nbDataPacketsReceived 0
scalar TARPNetwork.node[4].generic.np nbDataPacketsSent 0
scalar TARPNetwork.node[4].generic.np nbDataPacketsForwarded 155
scalar TARPNetwork.node[4].generic.np meanNbHops 0
scalar TARPNetwork.node[4].udp packetReceived:count 0
attr interpolationmode none
attr source packetReceived
attr title "packets received, count"
scalar TARPNetwork.node[4].udp packetReceived:sum(packetBytes) 0
attr interpolationmode none
attr source packetReceived
attr title "packets received, sum(packetBytes)"
scalar TARPNetwork.node[4].udp packetSent:count 0
attr interpolationmode none
attr source packetSent
attr title "packets sent, count"
scalar TARPNetwork.node[4].udp packetSent:sum(packetBytes) 0
attr interpolationmode none
attr source packetSent
attr title "packets sent, sum(packetBytes)"
scalar TARPNetwork.node[4].udp passedUpPk:count 0
attr interpolationmode none
attr source packetSentToUpper
attr title "packets passed up, count"
scalar TARPNetwork.node[4].udp droppedPkWrongPort:count 0
attr interpolationmode none
attr source packetDropReasonIsNoPortFound(packetDropped)
attr title "packets dropped (wrong port), count"
scalar TARPNetwork.node[4].udp droppedPkBadChecksum:count 0
attr interpolationmode none
attr source packetDropReasonIsIncorrectlyReceived(packetDropped)
attr title "packets dropped (checksum error), count"
scalar TARPNetwork.node[5].lo[0].lo rcvdPkFromHl:count 0
attr interpolationmode none
attr source packetReceivedFromUpper
attr title "packets received from higher layer, count"
scalar TARPNetwork.node[5].lo[0].lo rcvdPkFromHl:sum(packetBytes) 0
attr interpolationmode none
attr source packetReceivedFromUpper
attr title "packets received from higher layer, sum(packetBytes)"
scalar TARPNetwork.node[5].lo[0].lo passedUpPk:count 0
attr interpolationmode none
attr source packetSentToUpper
attr title "packets passed to higher layer, count"
scalar TARPNetwork.node[5].lo[0].lo passedUpPk:sum(packetBytes) 0
attr interpolationmode none
attr source packetSentToUpper
attr title "packets passed to higher layer, sum(packetBytes)"
scalar TARPNetwork.node[5].wlan[0].mac.queue packetPopped:count 155
attr interpolationmode none
attr title "packet popped, count"
scalar TARPNetwork.node[5].wlan[0].mac.queue packetPopped:sum(packetBytes) 11780
attr interpolationmode none
attr title "packet popped, sum(packetBytes)"
statistic TARPNetwork.node[5].wlan[0].mac.queue queueingTime:histogram
field count 155
field mean 0
field stddev 0
field min 0
field max 0
field sum 0
field sqrsum 0
attr interpolationmode none
attr source queueingTime(packetPopped)
attr title "queueing times, histogram"
attr unit s
bin	-inf	0
bin	-0.5	0
bin	-0.48	0
bin	-0.46	0
bin	-0.44	0
bin	-0.42	0
bin	-0.4	0
bin	-0.38	0
bin	-0.36	0
bin	-0.34	0
bin	-0.32	0
bin	-0.3	0
bin	-0.28	0
bin	-0.26	0
bin	-0.24	0
bin	-0.22	0
bin	-0.2	0
bin	-0.18	0
bin	-0.16	0
bin	-0.14	0
bin	-0.12	0
bin	-0.1	0
bin	-0.08	0
bin	-0.06	0
bin	-0.04	0
bin	-0.02	0
bin	0	155
bin	0.02	0
bin	0.04	0
bin	0.06	0
bin	0.08	0
bin	0.1	0
bin	0.12	0
bin	0.14	0
bin	0.16	0
bin	0.18	0
bin	0.2	0
bin	0.22	0
bin	0.24	0
bin	0.26	0
bin	0.28	0
bin	0.3	0
bin	0.32	0
bin	0.34	0
bin	0.36	0
bin	0.38	0
bin	0.4	0
bin	0.42	0
bin	0.44	0
bin	0.46	0
bin	0.48	0
bin	0.5	0
scalar TARPNetwork.node[5].wlan[0].mac.queue queueLength:max 1
attr interpolationmode sample-hold
attr source "count(packetPushed) - count(packetPopped) - count(packetRemoved) - count(packetDropped)"
attr title "queue length, max"
scalar TARPNetwork.node[5].wlan[0].mac.queue queueLength:timeavg 0
attr interpolationmode sample-hold
attr source "count(packetPushed) - count(packetPopped) - count(packetRemoved) - count(packetDropped)"
attr title "queue length, timeavg"
scalar TARPNetwork.node[5].wlan[0].mac.queue packetPushed:count 155
attr interpolationmode none
attr title "packet pushed, count"
scalar TARPNetwork.node[5].wlan[0].mac.queue packetPushed:sum(packetBytes) 11780
attr interpolationmode none
attr title "packet pushed, sum(packetBytes)"
scalar TARPNetwork.node[5].wlan[0].mac.queue packetDropQueueOverflow:count 0
attr interpolationmode none
attr source packetDropReasonIsQueueOverflow(packetDropped)
attr title "packet drops: queue overflow, count"
scalar TARPNetwork.node[5].wlan[0].mac.queue packetDropQueueOverflow:sum(packetBytes) 0
attr interpolationmode none
attr source packetDropReasonIsQueueOverflow(packetDropped)
attr title "packet drops: queue overflow, sum(packetBytes)"
scalar TARPNetwork.node[5].wlan[0].mac.queue packetRemoved:count 0
attr interpolationmode none
attr title "packets removed, count"
scalar TARPNetwork.node[5].wlan[0].mac.queue packetRemoved:sum(packetBytes) 0
attr interpolationmode none
attr title "packets removed, sum(packetBytes)"
scalar TARPNetwork.node[5].wlan[0].mac rcvdPkFromLl:count 362
attr interpolationmode none
attr source packetReceivedFromLower
attr title "packets received from lower layer, count"
scalar TARPNetwork.node[5].wlan[0].mac rcvdPkFromLl:sum(packetBytes) 33304
attr interpolationmode none
attr source packetReceivedFromLower
attr title "packets received from lower layer, sum(packetBytes)"
scalar TARPNetwork.node[5].wlan[0].mac sentDownPk:count 155
attr interpolationmode none
attr source packetSentToLower
attr title "packets sent to lower layer, count"
scalar TARPNetwork.node[5].wlan[0].mac sentDownPk:sum(packetBytes) 14260
attr interpolationmode none
attr source packetSentToLower
attr title "packets sent to lower layer, sum(packetBytes)"
scalar TARPNetwork.node[5].wlan[0].mac rcvdPkFromHl:count 155
attr interpolationmode none
attr source packetReceivedFromUpper
attr title "packets received from higher layer, count"
scalar TARPNetwork.node[5].wlan[0].mac rcvdPkFromHl:sum(packetBytes) 11780
attr interpolationmode none
attr source packetReceivedFromUpper
attr title "packets received from higher layer, sum(packetBytes)"
scalar TARPNetwork.node[5].wlan[0].mac passedUpPk:count 362
attr interpolationmode none
attr source packetSentToUpper
attr title "packets passed to higher layer, count"
scalar TARPNetwork.node[5].wlan[0].mac passedUpPk:sum(packetBytes) 27512
attr interpolationmode none
attr source packetSentToUpper
attr title "packets passed to higher layer, sum(packetBytes)"
scalar TARPNetwork.node[5].wlan[0].mac packetDropIncorrectlyReceived:count 0
attr interpolationmode none
attr source packetDropReasonIsIncorrectlyReceived(packetDropped)
attr title "packet drop: incorrectly received, count"
scalar TARPNetwork.node[5].wlan[0].mac packetDropIncorrectlyReceived:sum(packetBytes) 0
attr interpolationmode none
attr source packetDropReasonIsIncorrectlyReceived(packetDropped)
attr title "packet drop: incorrectly received, sum(packetBytes)"
scalar TARPNetwork.node[5].wlan[0].mac packetDropInterfaceDown:count 0
attr interpolationmode none
attr source packetDropReasonIsInterfaceDown(packetDropped)
attr title "packet drop: interface down, count"
scalar TARPNetwork.node[5].wlan[0].mac packetDropInterfaceDown:sum(packetBytes) 0
attr interpolationmode none
attr source packetDropReasonIsInterfaceDown(packetDropped)
attr title "packet drop: interface down, sum(packetBytes)"
scalar TARPNetwork.node[5].wlan[0].mac packetDropNotAddressedToUs:count 0
attr interpolationmode none
attr source packetDropReasonIsNotAddressedToUs(packetDropped)
attr title "packet drop: not addressed to us, count"
scalar TARPNetwork.node[5].wlan[0].mac packetDropNotAddressedToUs:sum(packetBytes) 0
attr interpolationmode none
attr source packetDropReasonIsNotAddressedToUs(packetDropped)
attr title "packet drop: not addressed to us, sum(packetBytes)"
scalar TARPNetwork.node[5].wlan[0].mac linkBroken:count 0
attr interpolationmode none
attr source linkBroken
attr title "link break, count"
statistic TARPNetwork.node[5].wlan[0].radio minSnir:histogram
field count 0
field mean nan
field stddev nan
field min nan
field max nan
field sum 0
field sqrsum 0
attr source minimumSnir(packetSentToUpper)
attr title "Min SNIR, histogram"
bin	-inf	0
bin	0	0
bin	1	0
statistic TARPNetwork.node[5].wlan[0].radio packetErrorRate:histogram
field count 362
field mean 0.72375690607735
field stddev 0.44775738696726
field min 0
field max 1
field sum 262
field sqrsum 262
attr source packetErrorRate(packetSentToUpper)
attr title "Packet error rate, histogram"
bin	-inf	0
bin	0	100
bin	1	262
bin	2	0
statistic TARPNetwork.node[5].wlan[0].radio bitErrorRate:histogram
field count 362
field mean 0.72375690607735
field stddev 0.44775738696726
field min 0
field max 1
field sum 262
field sqrsum 262
attr source bitErrorRate(packetSentToUpper)
attr title "Bit error rate, histogram"
bin	-inf	0
bin	0	100
bin	1	262
bin	2	0
statistic TARPNetwork.node[5].wlan[0].radio symbolErrorRate:histogram
field count 362
field mean 0.72375690607735
field stddev 0.44775738696726
field min 0
field max 1
field sum 262
field sqrsum 262
attr source symbolErrorRate(packetSentToUpper)
attr title "Symbol error rate, histogram"
bin	-inf	0
bin	0	100
bin	1	262
bin	2	0
scalar TARPNetwork.node[5].wlan[0].radio transmissionState:count 311
attr interpolationmode sample-hold
attr source transmissionStateChanged
attr title "Radio transmission state, count"
scalar TARPNetwork.node[5].wlan[0].radio receptionState:count 914
attr interpolationmode sample-hold
attr source receptionStateChanged
attr title "Radio reception state, count"
scalar TARPNetwork.node[5].wlan[0].radio radioMode:count 3
attr interpolationmode sample-hold
attr source radioModeChanged
attr title "Radio mode, count"
scalar TARPNetwork.node[5].generic.np nbDataPacketsReceived 0
scalar TARPNetwork.node[5].generic.np nbDataPacketsSent 0
scalar TARPNetwork.node[5].generic.np nbDataPacketsForwarded 155
scalar TARPNetwork.node[5].generic.np meanNbHops 0
scalar TARPNetwork.node[5].udp packetReceived:count 0
attr interpolationmode none
attr source packetReceived
attr title "packets received, count"
scalar TARPNetwork.node[5].udp packetReceived:sum(packetBytes) 0
attr interpolationmode none
attr source packetReceived
attr title "packets received, sum(packetBytes)"
scalar TARPNetwork.node[5].udp packetSent:count 0
attr interpolationmode none
attr source packetSent
attr title "packets sent, count"
scalar TARPNetwork.node[5].udp packetSent:sum(packetBytes) 0
attr interpolationmode none
attr source packetSent
attr title "packets sent, sum(packetBytes)"
scalar TARPNetwork.node[5].udp passedUpPk:count 0
attr interpolationmode none
attr source packetSentToUpper
attr title "packets passed up, count"
scalar TARPNetwork.node[5].udp droppedPkWrongPort:count 0
attr interpolationmode none
attr source packetDropReasonIsNoPortFound(packetDropped)
attr title "packets dropped (wrong port), count"
scalar TARPNetwork.node[5].udp droppedPkBadChecksum:count 0
attr interpolationmode none
attr source packetDropReasonIsIncorrectlyReceived(packetDropped)
attr title "packets dropped (checksum error), count"
scalar TARPNetwork.node[6].lo[0].lo rcvdPkFromHl:count 0
attr interpolationmode none
attr source packetReceivedFromUpper
attr title "packets received from higher layer, count"
scalar TARPNetwork.node[6].lo[0].lo rcvdPkFromHl:sum(packetBytes) 0
attr interpolationmode none
attr source packetReceivedFromUpper
attr title "packets received from higher layer, sum(packetBytes)"
scalar TARPNetwork.node[6].lo[0].lo passedUpPk:count 0
attr interpolationmode none
attr source packetSentToUpper
attr title "packets passed to higher layer, count"
scalar TARPNetwork.node[6].lo[0].lo passedUpPk:sum(packetBytes) 0
attr interpolationmode none
attr source packetSentToUpper
attr title "packets passed to higher layer, sum(packetBytes)"
scalar TARPNetwork.node[6].wlan[0].mac.queue packetPopped:count 155
attr interpolationmode none
attr title "packet popped, count"
scalar TARPNetwork.node[6].wlan[0].mac.queue packetPopped:sum(packetBytes) 11780
attr interpolationmode none
attr title "packet popped, sum(packetBytes)"
statistic TARPNetwork.node[6].wlan[0].mac.queue queueingTime:histogram
field count 155
field mean 0
field stddev 0
field min 0
field max 0
field sum 0
field sqrsum 0
attr interpolationmode none
attr source queueingTime(packetPopped)
attr title "queueing times, histogram"
attr unit s
bin	-inf	0
bin	-0.5	0
bin	-0.48	0
bin	-0.46	0
bin	-0.44	0
bin	-0.42	0
bin	-0.4	0
bin	-0.38	0
bin	-0.36	0
bin	-0.34	0
bin	-0.32	0
bin	-0.3	0
bin	-0.28	0
bin	-0.26	0
bin	-0.24	0
bin	-0.22	0
bin	-0.2	0
bin	-0.18	0
bin	-0.16	0
bin	-0.14	0
bin	-0.12	0
bin	-0.1	0
bin	-0.08	0
bin	-0.06	0
bin	-0.04	0
bin	-0.02	0
bin	0	155
bin	0.02	0
bin	0.04	0
bin	0.06	0
bin	0.08	0
bin	0.1	0
bin	0.12	0
bin	0.14	0
bin	0.16	0
bin	0.18	0
bin	0.2	0
bin	0.22	0
bin	0.24	0
bin	0.26	0
bin	0.28	0
bin	0.3	0
bin	0.32	0
bin	0.34	0
bin	0.36	0
bin	0.38	0
bin	0.4	0
bin	0.42	0
bin	0.44	0
bin	0.46	0
bin	0.48	0
bin	0.5	0
scalar TARPNetwork.node[6].wlan[0].mac.queue queueLength:max 1
attr interpolationmode sample-hold
attr source "count(packetPushed) - count(packetPopped) - count(packetRemoved) - count(packetDropped)"
attr title "queue length, max"
scalar TARPNetwork.node[6].wlan[0].mac.queue queueLength:timeavg 0
attr interpolationmode sample-hold
attr source "count(packetPushed) - count(packetPopped) - count(packetRemoved) - count(packetDropped)"
attr title "queue length, timeavg"
scalar TARPNetwork.node[6].wlan[0].mac.queue packetPushed:count 155
attr interpolationmode none
attr title "packet pushed, count"
scalar TARPNetwork.node[6].wlan[0].mac.queue packetPushed:sum(packetBytes) 11780
attr interpolationmode none
attr title "packet pushed, sum(packetBytes)"
scalar TARPNetwork.node[6].wlan[0].mac.queue packetDropQueueOverflow:count 0
attr interpolationmode none
attr source packetDropReasonIsQueueOverflow(packetDropped)
attr title "packet drops: queue overflow, count"
scalar TARPNetwork.node[6].wlan[0].mac.queue packetDropQueueOverflow:sum(packetBytes) 0
attr interpolationmode none
attr source packetDropReasonIsQueueOverflow(packetDropped)
attr title "packet drops: queue overflow, sum(packetBytes)"
scalar TARPNetwork.node[6].wlan[0].mac.queue packetRemoved:count 0
attr interpolationmode none
attr title "packets removed, count"
scalar TARPNetwork.node[6].wlan[0].mac.queue packetRemoved:sum(packetBytes) 0
attr interpolationmode none
attr title "packets removed, sum(packetBytes)"
scalar TARPNetwork.node[6].wlan[0].mac rcvdPkFromLl:count 314
attr interpolationmode none
attr source packetReceivedFromLower
attr title "packets received from lower layer, count"
scalar TARPNetwork.node[6].wlan[0].mac rcvdPkFromLl:sum(packetBytes) 28888
attr interpolationmode none
attr source packetReceivedFromLower
attr title "packets received from lower layer, sum(packetBytes)"
scalar TARPNetwork.node[6].wlan[0].mac sentDownPk:count 155
attr interpolationmode none
attr source packetSentToLower
attr title "packets sent to lower layer, count"
scalar TARPNetwork.node[6].wlan[0].mac sentDownPk:sum(packetBytes) 14260
attr interpolationmode none
attr source packetSentToLower
attr title "packets sent to lower layer, sum(packetBytes)"
scalar TARPNetwork.node[6].wlan[0].mac rcvdPkFromHl:count 155
attr interpolationmode none
attr source packetReceivedFromUpper
attr title "packets received from higher layer, count"
scalar TARPNetwork.node[6].wlan[0].mac rcvdPkFromHl:sum(packetBytes) 11780
attr interpolationmode none
attr source packetReceivedFromUpper
attr title "packets received from higher layer, sum(packetBytes)"
scalar TARPNetwork.node[6].wlan[0].mac passedUpPk:count 314
attr interpolationmode none
attr source packetSentToUpper
attr title "packets passed to higher layer, count"
scalar TARPNetwork.node[6].wlan[0].mac passedUpPk:sum(packetBytes) 23864
attr interpolationmode none
attr source packetSentToUpper
attr title "packets passed to higher layer, sum(packetBytes)"
scalar TARPNetwork.node[6].wlan[0].mac packetDropIncorrectlyReceived:count 0
attr interpolationmode none
attr source packetDropReasonIsIncorrectlyReceived(packetDropped)
attr title "packet drop: incorrectly received, count"
scalar TARPNetwork.node[6].wlan[0].mac packetDropIncorrectlyReceived:sum(packetBytes) 0
attr interpolationmode none
attr source packetDropReasonIsIncorrectlyReceived(packetDropped)
attr title "packet drop: incorrectly received, sum(packetBytes)"
scalar TARPNetwork.node[6].wlan[0].mac packetDropInterfaceDown:count 0
attr interpolationmode none
attr source packetDropReasonIsInterfaceDown(packetDropped)
attr title "packet drop: interface down, count"
scalar TARPNetwork.node[6].wlan[0].mac packetDropInterfaceDown:sum(packetBytes) 0
attr interpolationmode none
attr source packetDropReasonIsInterfaceDown(packetDropped)
attr title "packet drop: interface down, sum(packetBytes)"
scalar TARPNetwork.node[6].wlan[0].mac packetDropNotAddressedToUs:count 0
attr interpolationmode none
attr source packetDropReasonIsNotAddressedToUs(packetDropped)
attr title "packet drop: not addressed to us, count"
scalar TARPNetwork.node[6].wlan[0].mac packetDropNotAddressedToUs:sum(packetBytes) 0
attr interpolationmode none
attr source packetDropReasonIsNotAddressedToUs(packetDropped)
attr title "packet drop: not addressed to us, sum(packetBytes)"
scalar TARPNetwork.node[6].wlan[0].mac linkBroken:count 0
attr interpolationmode none
attr source linkBroken
attr title "link break, count"
statistic TARPNetwork.node[6].wlan[0].radio minSnir:histogram
field count 0
field mean nan
field stddev nan
field min nan
field max nan
field sum 0
field sqrsum 0
attr source minimumSnir(packetSentToUpper)
attr title "Min SNIR, histogram"
bin	-inf	0
bin	0	0
bin	1	0
statistic TARPNetwork.node[6].wlan[0].radio packetErrorRate:histogram
field count 314
field mean 0.53821656050955
field stddev 0.49933310564772
field min 0
field max 1
field sum 169
field sqrsum 169
attr source packetErrorRate(packetSentToUpper)
attr title "Packet error rate, histogram"
bin	-inf	0
bin	0	145
bin	1	169
bin	2	0
statistic TARPNetwork.node[6].wlan[0].radio bitErrorRate:histogram
field count 314
field mean 0.53821656050955
field stddev 0.49933310564772
field min 0
field max 1
field sum 169
field sqrsum 169
attr source bitErrorRate(packetSentToUpper)
attr title "Bit error rate, histogram"
bin	-inf	0
bin	0	145
bin	1	169
bin	2	0
statistic TARPNetwork.node[6].wlan[0].radio symbolErrorRate:histogram
field count 314
field mean 0.53821656050955
field stddev 0.49933310564772
field min 0
field max 1
field sum 169
field sqrsum 169
attr source symbolErrorRate(packetSentToUpper)
attr title "Symbol error rate, histogram"
bin	-inf	0
bin	0	145
bin	1	169
bin	2	0
scalar TARPNetwork.node[6].wlan[0].radio transmissionState:count 311
attr interpolationmode sample-hold
attr source transmissionStateChanged
attr title "Radio transmission state, count"
scalar TARPNetwork.node[6].wlan[0].radio receptionState:count 777
attr interpolationmode sample-hold
attr source receptionStateChanged
attr title "Radio reception state, count"
scalar TARPNetwork.node[6].wlan[0].radio radioMode:count 3
attr interpolationmode sample-hold
attr source radioModeChanged
attr title "Radio mode, count"
scalar TARPNetwork.node[6].generic.np nbDataPacketsReceived 0
scalar TARPNetwork.node[6].generic.np nbDataPacketsSent 0
scalar TARPNetwork.node[6].generic.np nbDataPacketsForwarded 155
scalar TARPNetwork.node[6].generic.np meanNbHops 0
scalar TARPNetwork.node[6].udp packetReceived:count 0
attr interpolationmode none
attr source packetReceived
attr title "packets received, count"
scalar TARPNetwork.node[6].udp packetReceived:sum(packetBytes) 0
attr interpolationmode none
attr source packetReceived
attr title "packets received, sum(packetBytes)"
scalar TARPNetwork.node[6].udp packetSent:count 0
attr interpolationmode none
attr source packetSent
attr title "packets sent, count"
scalar TARPNetwork.node[6].udp packetSent:sum(packetBytes) 0
attr interpolationmode none
attr source packetSent
attr title "packets sent, sum(packetBytes)"
scalar TARPNetwork.node[6].udp passedUpPk:count 0
attr interpolationmode none
attr source packetSentToUpper
attr title "packets passed up, count"
scalar TARPNetwork.node[6].udp droppedPkWrongPort:count 0
attr interpolationmode none
attr source packetDropReasonIsNoPortFound(packetDropped)
attr title "packets dropped (wrong port), count"
scalar TARPNetwork.node[6].udp droppedPkBadChecksum:count 0
attr interpolationmode none
attr source packetDropReasonIsIncorrectlyReceived(packetDropped)
attr title "packets dropped (checksum error), count"
scalar TARPNetwork.node[7].lo[0].lo rcvdPkFromHl:count 0
attr interpolationmode none
attr source packetReceivedFromUpper
attr title "packets received from higher layer, count"
scalar TARPNetwork.node[7].lo[0].lo rcvdPkFromHl:sum(packetBytes) 0
attr interpolationmode none
attr source packetReceivedFromUpper
attr title "packets received from higher layer, sum(packetBytes)"
scalar TARPNetwork.node[7].lo[0].lo passedUpPk:count 0
attr interpolationmode none
attr source packetSentToUpper
attr title "packets passed to higher layer, count"
scalar TARPNetwork.node[7].lo[0].lo passedUpPk:sum(packetBytes) 0
attr interpolationmode none
attr source packetSentToUpper
attr title "packets passed to higher layer, sum(packetBytes)"
scalar TARPNetwork.node[7].wlan[0].mac.queue packetPopped:count 155
attr interpolationmode none
attr title "packet popped, count"
scalar TARPNetwork.node[7].wlan[0].mac.queue packetPopped:sum(packetBytes) 11780
attr interpolationmode none
attr title "packet popped, sum(packetBytes)"
statistic TARPNetwork.node[7].wlan[0].mac.queue queueingTime:histogram
field count 155
field mean 0
field stddev 0
field min 0
field max 0
field sum 0
field sqrsum 0
attr interpolationmode none
attr source queueingTime(packetPopped)
attr title "queueing times, histogram"
attr unit s
bin	-inf	0
bin	-0.5	0
bin	-0.48	0
bin	-0.46	0
bin	-0.44	0
bin	-0.42	0
bin	-0.4	0
bin	-0.38	0
bin	-0.36	0
bin	-0.34	0
bin	-0.32	0
bin	-0.3	0
bin	-0.28	0
bin	-0.26	0
bin	-0.24	0
bin	-0.22	0
bin	-0.2	0
bin	-0.18	0
bin	-0.16	0
bin	-0.14	0
bin	-0.12	0
bin	-0.1	0
bin	-0.08	0
bin	-0.06	0
bin	-0.04	0
bin	-0.02	0
bin	0	155
bin	0.02	0
bin	0.04	0
bin	0.06	0
bin	0.08	0
bin	0.1	0
bin	0.12	0
bin	0.14	0
bin	0.16	0
bin	0.18	0
bin	0.2	0
bin	0.22	0
bin	0.24	0
bin	0.26	0
bin	0.28	0
bin	0.3	0
bin	0.32	0
bin	0.34	0
bin	0.36	0
bin	0.38	0
bin	0.4	0
bin	0.42	0
bin	0.44	0
bin	0.46	0
bin	0.48	0
bin	0.5	0
scalar TARPNetwork.node[7].wlan[0].mac.queue queueLength:max 1
attr interpolationmode sample-hold
attr source "count(packetPushed) - count(packetPopped) - count(packetRemoved) - count(packetDropped)"
attr title "queue length, max"
scalar TARPNetwork.node[7].wlan[0].mac.queue queueLength:timeavg 0
attr interpolationmode sample-hold
attr source "count(packetPushed) - count(packetPopped) - count(packetRemoved) - count(packetDropped)"
attr title "queue length, timeavg"
scalar TARPNetwork.node[7].wlan[0].mac.queue packetPushed:count 155
attr interpolationmode none
attr title "packet pushed, count"
scalar TARPNetwork.node[7].wlan[0].mac.queue packetPushed:sum(packetBytes) 11780
attr interpolationmode none
attr title "packet pushed, sum(packetBytes)"
scalar TARPNetwork.node[7].wlan[0].mac.queue packetDropQueueOverflow:count 0
attr interpolationmode none
attr source packetDropReasonIsQueueOverflow(packetDropped)
attr title "packet drops: queue overflow, count"
scalar TARPNetwork.node[7].wlan[0].mac.queue packetDropQueueOverflow:sum(packetBytes) 0
attr interpolationmode none
attr source packetDropReasonIsQueueOverflow(packetDropped)
attr title "packet drops: queue overflow, sum(packetBytes)"
scalar TARPNetwork.node[7].wlan[0].mac.queue packetRemoved:count 0
attr interpolationmode none
attr title "packets removed, count"
scalar TARPNetwork.node[7].wlan[0].mac.queue packetRemoved:sum(packetBytes) 0
attr interpolationmode none
attr title "packets removed, sum(packetBytes)"
scalar TARPNetwork.node[7].wlan[0].mac rcvdPkFromLl:count 447
attr interpolationmode none
attr source packetReceivedFromLower
attr title "packets received from lower layer, count"
scalar TARPNetwork.node[7].wlan[0].mac rcvdPkFromLl:sum(packetBytes) 41124
attr interpolationmode none
attr source packetReceivedFromLower
attr title "packets received from lower layer, sum(packetBytes)"
scalar TARPNetwork.node[7].wlan[0].mac sentDownPk:count 155
attr interpolationmode none
attr source packetSentToLower
attr title "packets sent to lower layer, count"
scalar TARPNetwork.node[7].wlan[0].mac sentDownPk:sum(packetBytes) 14260
attr interpolationmode none
attr source packetSentToLower
attr title "packets sent to lower layer, sum(packetBytes)"
scalar TARPNetwork.node[7].wlan[0].mac rcvdPkFromHl:count 155
attr interpolationmode none
attr source packetReceivedFromUpper
attr title "packets received from higher layer, count"
scalar TARPNetwork.node[7].wlan[0].mac rcvdPkFromHl:sum(packetBytes) 11780
attr interpolationmode none
attr source packetReceivedFromUpper
attr title "packets received from higher layer, sum(packetBytes)"
scalar TARPNetwork.node[7].wlan[0].mac passedUpPk:count 447
attr interpolationmode none
attr source packetSentToUpper
attr title "packets passed to higher layer, count"
scalar TARPNetwork.node[7].wlan[0].mac passedUpPk:sum(packetBytes) 33972
attr interpolationmode none
attr source packetSentToUpper
attr title "packets passed to higher layer, sum(packetBytes)"
scalar TARPNetwork.node[7].wlan[0].mac packetDropIncorrectlyReceived:count 0
attr interpolationmode none
attr source packetDropReasonIsIncorrectlyReceived(packetDropped)
attr title "packet drop: incorrectly received, count"
scalar TARPNetwork.node[7].wlan[0].mac packetDropIncorrectlyReceived:sum(packetBytes) 0
attr interpolationmode none
attr source packetDropReasonIsIncorrectlyReceived(packetDropped)
attr title "packet drop: incorrectly received, sum(packetBytes)"
scalar TARPNetwork.node[7].wlan[0].mac packetDropInterfaceDown:count 0
attr interpolationmode none
attr source packetDropReasonIsInterfaceDown(packetDropped)
attr title "packet drop: interface down, count"
scalar TARPNetwork.node[7].wlan[0].mac packetDropInterfaceDown:sum(packetBytes) 0
attr interpolationmode none
attr source packetDropReasonIsInterfaceDown(packetDropped)
attr title "packet drop: interface down, sum(packetBytes)"
scalar TARPNetwork.node[7].wlan[0].mac packetDropNotAddressedToUs:count 0
attr interpolationmode none
attr source packetDropReasonIsNotAddressedToUs(packetDropped)
attr title "packet drop: not addressed to us, count"
scalar TARPNetwork.node[7].wlan[0].mac packetDropNotAddressedToUs:sum(packetBytes) 0
attr interpolationmode none
attr source packetDropReasonIsNotAddressedToUs(packetDropped)
attr title "packet drop: not addressed to us, sum(packetBytes)"
scalar TARPNetwork.node[7].wlan[0].mac linkBroken:count 0
attr interpolationmode none
attr source linkBroken
attr title "link break, count"
statistic TARPNetwork.node[7].wlan[0].radio minSnir:histogram
field count 0
field mean nan
field stddev nan
field min nan
field max nan
field sum 0
field sqrsum 0
attr source minimumSnir(packetSentToUpper)
attr title "Min SNIR, histogram"
bin	-inf	0
bin	0	0
bin	1	0
statistic TARPNetwork.node[7].wlan[0].radio packetErrorRate:histogram
field count 447
field mean 0.73601789709172
field stddev 0.44128357379817
field min 0
field max 1
field sum 329
field sqrsum 329
attr source packetErrorRate(packetSentToUpper)
attr title "Packet error rate, histogram"
bin	-inf	0
bin	0	118
bin	1	329
bin	2	0
statistic TARPNetwork.node[7].wlan[0].radio bitErrorRate:histogram
field count 447
field mean 0.73601789709172
field stddev 0.44128357379817
field min 0
field max 1
field sum 329
field sqrsum 329
attr source bitErrorRate(packetSentToUpper)
attr title "Bit error rate, histogram"
bin	-inf	0
bin	0	118
bin	1	329
bin	2	0
statistic TARPNetwork.node[7].wlan[0].radio symbolErrorRate:histogram
field count 447
field mean 0.73601789709172
field stddev 0.44128357379817
field min 0
field max 1
field sum 329
field sqrsum 329
attr source symbolErrorRate(packetSentToUpper)
attr title "Symbol error rate, histogram"
bin	-inf	0
bin	0	118
bin	1	329
bin	2	0
scalar TARPNetwork.node[7].wlan[0].radio transmissionState:count 311
attr interpolationmode sample-hold
attr source transmissionStateChanged
attr title "Radio transmission state, count"
scalar TARPNetwork.node[7].wlan[0].radio receptionState:count 1161
attr interpolationmode sample-hold
attr source receptionStateChanged
attr title "Radio reception state, count"
scalar TARPNetwork.node[7].wlan[0].radio radioMode:count 3
attr interpolationmode sample-hold
attr source radioModeChanged
attr title "Radio mode, count"
scalar TARPNetwork.node[7].generic.np nbDataPacketsReceived 0
scalar TARPNetwork.node[7].generic.np nbDataPacketsSent 0
scalar TARPNetwork.node[7].generic.np nbDataPacketsForwarded 155
scalar TARPNetwork.node[7].generic.np meanNbHops 0
scalar TARPNetwork.node[7].udp packetReceived:count 0
attr interpolationmode none
attr source packetReceived
attr title "packets received, count"
scalar TARPNetwork.node[7].udp packetReceived:sum(packetBytes) 0
attr interpolationmode none
attr source packetReceived
attr title "packets received, sum(packetBytes)"
scalar TARPNetwork.node[7].udp packetSent:count 0
attr interpolationmode none
attr source packetSent
attr title "packets sent, count"
scalar TARPNetwork.node[7].udp packetSent:sum(packetBytes) 0
attr interpolationmode none
attr source packetSent
attr title "packets sent, sum(packetBytes)"
scalar TARPNetwork.node[7].udp passedUpPk:count 0
attr interpolationmode none
attr source packetSentToUpper
attr title "packets passed up, count"
scalar TARPNetwork.node[7].udp droppedPkWrongPort:count 0
attr interpolationmode none
attr source packetDropReasonIsNoPortFound(packetDropped)
attr title "packets dropped (wrong port), count"
scalar TARPNetwork.node[7].udp droppedPkBadChecksum:count 0
attr interpolationmode none
attr source packetDropReasonIsIncorrectlyReceived(packetDropped)
attr title "packets dropped (checksum error), count"
scalar TARPNetwork.node[8].lo[0].lo rcvdPkFromHl:count 0
attr interpolationmode none
attr source packetReceivedFromUpper
attr title "packets received from higher layer, count"
scalar TARPNetwork.node[8].lo[0].lo rcvdPkFromHl:sum(packetBytes) 0
attr interpolationmode none
attr source packetReceivedFromUpper
attr title "packets received from higher layer, sum(packetBytes)"
scalar TARPNetwork.node[8].lo[0].lo passedUpPk:count 0
attr interpolationmode none
attr source packetSentToUpper
attr title "packets passed to higher layer, count"
scalar TARPNetwork.node[8].lo[0].lo passedUpPk:sum(packetBytes) 0
attr interpolationmode none
attr source packetSentToUpper
attr title "packets passed to higher layer, sum(packetBytes)"
scalar TARPNetwork.node[8].wlan[0].mac.queue packetPopped:count 155
attr interpolationmode none
attr title "packet popped, count"
scalar TARPNetwork.node[8].wlan[0].mac.queue packetPopped:sum(packetBytes) 11780
attr interpolationmode none
attr title "packet popped, sum(packetBytes)"
statistic TARPNetwork.node[8].wlan[0].mac.queue queueingTime:histogram
field count 155
field mean 0
field stddev 0
field min 0
field max 0
field sum 0
field sqrsum 0
[...]
attr title "packets passed to higher layer, count"
scalar TARPNetwork.nodeA.lo[0].lo passedUpPk:sum(packetBytes) 0
attr interpolationmode none
attr source packetSentToUpper
attr title "packets passed to higher layer, sum(packetBytes)"
scalar TARPNetwork.nodeA.wlan[0].mac.queue packetPopped:count 100
attr interpolationmode none
attr title "packet popped, count"
scalar TARPNetwork.nodeA.wlan[0].mac.queue packetPopped:sum(packetBytes) 7600
attr interpolationmode none
attr title "packet popped, sum(packetBytes)"
statistic TARPNetwork.nodeA.wlan[0].mac.queue queueingTime:histogram
field count 100
field mean 0
field stddev 0
field min 0
field max 0
field sum 0
field sqrsum 0
attr interpolationmode none
attr source queueingTime(packetPopped)
attr title "queueing times, histogram"
attr unit s
bin	-inf	0
bin	-0.5	0
bin	-0.48	0
bin	-0.46	0
bin	-0.44	0
bin	-0.42	0
bin	-0.4	0
bin	-0.38	0
bin	-0.36	0
bin	-0.34	0
bin	-0.32	0
bin	-0.3	0
bin	-0.28	0
bin	-0.26	0
bin	-0.24	0
bin	-0.22	0
bin	-0.2	0
bin	-0.18	0
bin	-0.16	0
bin	-0.14	0
bin	-0.12	0
bin	-0.1	0
bin	-0.08	0
bin	-0.06	0
bin	-0.04	0
bin	-0.02	0
bin	0	100
bin	0.02	0
bin	0.04	0
bin	0.06	0
bin	0.08	0
bin	0.1	0
bin	0.12	0
bin	0.14	0
bin	0.16	0
bin	0.18	0
bin	0.2	0
bin	0.22	0
bin	0.24	0
bin	0.26	0
bin	0.28	0
bin	0.3	0
bin	0.32	0
bin	0.34	0
bin	0.36	0
bin	0.38	0
bin	0.4	0
bin	0.42	0
bin	0.44	0
bin	0.46	0
bin	0.48	0
bin	0.5	0
scalar TARPNetwork.nodeA.wlan[0].mac.queue queueLength:max 1
attr interpolationmode sample-hold
attr source "count(packetPushed) - count(packetPopped) - count(packetRemoved) - count(packetDropped)"
attr title "queue length, max"
scalar TARPNetwork.nodeA.wlan[0].mac.queue queueLength:timeavg 0
attr interpolationmode sample-hold
attr source "count(packetPushed) - count(packetPopped) - count(packetRemoved) - count(packetDropped)"
attr title "queue length, timeavg"
scalar TARPNetwork.nodeA.wlan[0].mac.queue packetPushed:count 100
attr interpolationmode none
attr title "packet pushed, count"
scalar TARPNetwork.nodeA.wlan[0].mac.queue packetPushed:sum(packetBytes) 7600
attr interpolationmode none
attr title "packet pushed, sum(packetBytes)"
scalar TARPNetwork.nodeA.wlan[0].mac.queue packetDropQueueOverflow:count 0
attr interpolationmode none
attr source packetDropReasonIsQueueOverflow(packetDropped)
attr title "packet drops: queue overflow, count"
scalar TARPNetwork.nodeA.wlan[0].mac.queue packetDropQueueOverflow:sum(packetBytes) 0
attr interpolationmode none
attr source packetDropReasonIsQueueOverflow(packetDropped)
attr title "packet drops: queue overflow, sum(packetBytes)"
scalar TARPNetwork.nodeA.wlan[0].mac.queue packetRemoved:count 0
attr interpolationmode none
attr title "packets removed, count"
scalar TARPNetwork.nodeA.wlan[0].mac.queue packetRemoved:sum(packetBytes) 0
attr interpolationmode none
attr title "packets removed, sum(packetBytes)"
scalar TARPNetwork.nodeA.wlan[0].mac rcvdPkFromLl:count 271
attr interpolationmode none
attr source packetReceivedFromLower
attr title "packets received from lower layer, count"
scalar TARPNetwork.nodeA.wlan[0].mac rcvdPkFromLl:sum(packetBytes) 24932
attr interpolationmode none
attr source packetReceivedFromLower
attr title "packets received from lower layer, sum(packetBytes)"
scalar TARPNetwork.nodeA.wlan[0].mac sentDownPk:count 100
attr interpolationmode none
attr source packetSentToLower
attr title "packets sent to lower layer, count"
scalar TARPNetwork.nodeA.wlan[0].mac sentDownPk:sum(packetBytes) 9200
attr interpolationmode none
attr source packetSentToLower
attr title "packets sent to lower layer, sum(packetBytes)"
scalar TARPNetwork.nodeA.wlan[0].mac rcvdPkFromHl:count 100
attr interpolationmode none
attr source packetReceivedFromUpper
attr title "packets received from higher layer, count"
scalar TARPNetwork.nodeA.wlan[0].mac rcvdPkFromHl:sum(packetBytes) 7600
attr interpolationmode none
attr source packetReceivedFromUpper
attr title "packets received from higher layer, sum(packetBytes)"
scalar TARPNetwork.nodeA.wlan[0].mac passedUpPk:count 271
attr interpolationmode none
attr source packetSentToUpper
attr title "packets passed to higher layer, count"
scalar TARPNetwork.nodeA.wlan[0].mac passedUpPk:sum(packetBytes) 20596
attr interpolationmode none
attr source packetSentToUpper
attr title "packets passed to higher layer, sum(packetBytes)"
scalar TARPNetwork.nodeA.wlan[0].mac packetDropIncorrectlyReceived:count 0
attr interpolationmode none
attr source packetDropReasonIsIncorrectlyReceived(packetDropped)
attr title "packet drop: incorrectly received, count"
scalar TARPNetwork.nodeA.wlan[0].mac packetDropIncorrectlyReceived:sum(packetBytes) 0
attr interpolationmode none
attr source packetDropReasonIsIncorrectlyReceived(packetDropped)
attr title "packet drop: incorrectly received, sum(packetBytes)"
scalar TARPNetwork.nodeA.wlan[0].mac packetDropInterfaceDown:count 0
attr interpolationmode none
attr source packetDropReasonIsInterfaceDown(packetDropped)
attr title "packet drop: interface down, count"
scalar TARPNetwork.nodeA.wlan[0].mac packetDropInterfaceDown:sum(packetBytes) 0
attr interpolationmode none
attr source packetDropReasonIsInterfaceDown(packetDropped)
attr title "packet drop: interface down, sum(packetBytes)"
scalar TARPNetwork.nodeA.wlan[0].mac packetDropNotAddressedToUs:count 0
attr interpolationmode none
attr source packetDropReasonIsNotAddressedToUs(packetDropped)
attr title "packet drop: not addressed to us, count"
scalar TARPNetwork.nodeA.wlan[0].mac packetDropNotAddressedToUs:sum(packetBytes) 0
attr interpolationmode none
attr source packetDropReasonIsNotAddressedToUs(packetDropped)
attr title "packet drop: not addressed to us, sum(packetBytes)"
scalar TARPNetwork.nodeA.wlan[0].mac linkBroken:count 0
attr interpolationmode none
attr source linkBroken
attr title "link break, count"
statistic TARPNetwork.nodeA.wlan[0].radio minSnir:histogram
field count 0
field mean nan
field stddev nan
field min nan
field max nan
field sum 0
field sqrsum 0
attr source minimumSnir(packetSentToUpper)
attr title "Min SNIR, histogram"
bin	-inf	0
bin	0	0
bin	1	0
statistic TARPNetwork.nodeA.wlan[0].radio packetErrorRate:histogram
field count 271
field mean 0.81549815498155
field stddev 0.38861057222937
field min 0
field max 1
field sum 221
field sqrsum 221
attr source packetErrorRate(packetSentToUpper)
attr title "Packet error rate, histogram"
bin	-inf	0
bin	0	50
bin	1	221
bin	2	0
statistic TARPNetwork.nodeA.wlan[0].radio bitErrorRate:histogram
field count 271
field mean 0.81549815498155
field stddev 0.38861057222937
field min 0
field max 1
field sum 221
field sqrsum 221
attr source bitErrorRate(packetSentToUpper)
attr title "Bit error rate, histogram"
bin	-inf	0
bin	0	50
bin	1	221
bin	2	0
statistic TARPNetwork.nodeA.wlan[0].radio symbolErrorRate:histogram
field count 271
field mean 0.81549815498155
field stddev 0.38861057222937
field min 0
field max 1
field sum 221
field sqrsum 221
attr source symbolErrorRate(packetSentToUpper)
attr title "Symbol error rate, histogram"
bin	-inf	0
bin	0	50
bin	1	221
bin	2	0
scalar TARPNetwork.nodeA.wlan[0].radio transmissionState:count 200
attr interpolationmode sample-hold
attr source transmissionStateChanged
attr title "Radio transmission state, count"
scalar TARPNetwork.nodeA.wlan[0].radio receptionState:count 738
attr interpolationmode sample-hold
attr source receptionStateChanged
attr title "Radio reception state, count"
scalar TARPNetwork.nodeA.wlan[0].radio radioMode:count 3
attr interpolationmode sample-hold
attr source radioModeChanged
attr title "Radio mode, count"
scalar TARPNetwork.nodeA.generic.np nbDataPacketsReceived 56
scalar TARPNetwork.nodeA.generic.np nbDataPacketsSent 100
scalar TARPNetwork.nodeA.generic.np nbDataPacketsForwarded 0
scalar TARPNetwork.nodeA.generic.np meanNbHops 6.8214285714286
scalar TARPNetwork.nodeA.udp packetReceived:count 0
attr interpolationmode none
attr source packetReceived
attr title "packets received, count"
scalar TARPNetwork.nodeA.udp packetReceived:sum(packetBytes) 0
attr interpolationmode none
attr source packetReceived
attr title "packets received, sum(packetBytes)"
scalar TARPNetwork.nodeA.udp packetSent:count 0
attr interpolationmode none
attr source packetSent
attr title "packets sent, count"
scalar TARPNetwork.nodeA.udp packetSent:sum(packetBytes) 0
attr interpolationmode none
attr source packetSent
attr title "packets sent, sum(packetBytes)"
scalar TARPNetwork.nodeA.udp passedUpPk:count 0
attr interpolationmode none
attr source packetSentToUpper
attr title "packets passed up, count"
scalar TARPNetwork.nodeA.udp droppedPkWrongPort:count 0
attr interpolationmode none
attr source packetDropReasonIsNoPortFound(packetDropped)
attr title "packets dropped (wrong port), count"
scalar TARPNetwork.nodeA.udp droppedPkBadChecksum:count 0
attr interpolationmode none
attr source packetDropReasonIsIncorrectlyReceived(packetDropped)
attr title "packets dropped (checksum error), count"
scalar TARPNetwork.nodeA.app[0] "Pings sent" 100
scalar TARPNetwork.nodeA.app[0] "ping loss rate (%)" 44
scalar TARPNetwork.nodeA.app[0] "ping out-of-order rate (%)" 0
scalar TARPNetwork.nodeA.app[0] pingRxSeq:count 56
attr interpolationmode none
attr title "ping rx seq, count"
scalar TARPNetwork.nodeA.app[0] pingTxSeq:count 100
attr interpolationmode none
attr title "ping tx seq, count"
scalar TARPNetwork.nodeA.app[0] numOutOfOrderArrivals:last nan
attr interpolationmode none
attr title "ping out-of-order arrivals, last"
scalar TARPNetwork.nodeA.app[0] numLost:last 43
attr interpolationmode none
attr title "pings lost, last"
statistic TARPNetwork.nodeA.app[0] rtt:histogram
field count 56
field mean 0.0052476820541071
field stddev 0.00048061019779115
field min 0.004578977053
field max 0.006243375981
field sum 0.29387019503
field sqrsum 0.001554841587618
attr interpolationmode none
attr title "ping round-trip time, histogram"
attr unit s
bin	-inf	0
bin	0.00415	0
bin	0.0042	0
bin	0.00425	0
bin	0.0043	0
bin	0.00435	0
bin	0.0044	0
bin	0.00445	0
bin	0.0045	0
bin	0.00455	11
bin	0.0046	0
bin	0.00465	0
bin	0.0047	0
bin	0.00475	0
bin	0.0048	0
bin	0.00485	0
bin	0.0049	0
bin	0.00495	15
bin	0.005	0
bin	0.00505	0
bin	0.0051	0
bin	0.00515	0
bin	0.0052	0
bin	0.00525	0
bin	0.0053	0
bin	0.00535	0
bin	0.0054	19
bin	0.00545	0
bin	0.0055	0
bin	0.00555	0
bin	0.0056	0
bin	0.00565	0
bin	0.0057	0
bin	0.00575	0
bin	0.0058	7
bin	0.00585	0
bin	0.0059	0
bin	0.00595	0
bin	0.006	0
bin	0.00605	0
bin	0.0061	0
bin	0.00615	0
bin	0.0062	4
bin	0.00625	0
bin	0.0063	0
bin	0.00635	0
bin	0.0064	0
bin	0.00645	0
bin	0.0065	0
bin	0.00655	0
bin	0.0066	0
bin	0.00665	0
bin	0.0067	0
scalar TARPNetwork.nodeB.lo[0].lo rcvdPkFromHl:count 0
attr interpolationmode none
attr source packetReceivedFromUpper
attr title "packets received from higher layer, count"
scalar TARPNetwork.nodeB.lo[0].lo rcvdPkFromHl:sum(packetBytes) 0
attr interpolationmode none
attr source packetReceivedFromUpper
attr title "packets received from higher layer, sum(packetBytes)"
scalar TARPNetwork.nodeB.lo[0].lo passedUpPk:count 0
attr interpolationmode none
attr source packetSentToUpper
attr title "packets passed to higher layer, count"
scalar TARPNetwork.nodeB.lo[0].lo passedUpPk:sum(packetBytes) 0
attr interpolationmode none
attr source packetSentToUpper
attr title "packets passed to higher layer, sum(packetBytes)"
scalar TARPNetwork.nodeB.wlan[0].mac.queue packetPopped:count 99
attr interpolationmode none
attr title "packet popped, count"
scalar TARPNetwork.nodeB.wlan[0].mac.queue packetPopped:sum(packetBytes) 7524
attr interpolationmode none
attr title "packet popped, sum(packetBytes)"
statistic TARPNetwork.nodeB.wlan[0].mac.queue queueingTime:histogram
field count 99
field mean 0
field stddev 0
field min 0
field max 0
field sum 0
field sqrsum 0
attr interpolationmode none
attr source queueingTime(packetPopped)
attr title "queueing times, histogram"
attr unit s
bin	-inf	0
bin	-0.5	0
bin	-0.48	0
bin	-0.46	0
bin	-0.44	0
bin	-0.42	0
bin	-0.4	0
bin	-0.38	0
bin	-0.36	0
bin	-0.34	0
bin	-0.32	0
bin	-0.3	0
bin	-0.28	0
bin	-0.26	0
bin	-0.24	0
bin	-0.22	0
bin	-0.2	0
bin	-0.18	0
bin	-0.16	0
bin	-0.14	0
bin	-0.12	0
bin	-0.1	0
bin	-0.08	0
bin	-0.06	0
bin	-0.04	0
bin	-0.02	0
bin	0	99
bin	0.02	0
bin	0.04	0
bin	0.06	0
bin	0.08	0
bin	0.1	0
bin	0.12	0
bin	0.14	0
bin	0.16	0
bin	0.18	0
bin	0.2	0
bin	0.22	0
bin	0.24	0
bin	0.26	0
bin	0.28	0
bin	0.3	0
bin	0.32	0
bin	0.34	0
bin	0.36	0
bin	0.38	0
bin	0.4	0
bin	0.42	0
bin	0.44	0
bin	0.46	0
bin	0.48	0
bin	0.5	0
scalar TARPNetwork.nodeB.wlan[0].mac.queue queueLength:max 1
attr interpolationmode sample-hold
attr source "count(packetPushed) - count(packetPopped) - count(packetRemoved) - count(packetDropped)"
attr title "queue length, max"
scalar TARPNetwork.nodeB.wlan[0].mac.queue queueLength:timeavg 0
attr interpolationmode sample-hold
attr source "count(packetPushed) - count(packetPopped) - count(packetRemoved) - count(packetDropped)"
attr title "queue length, timeavg"
scalar TARPNetwork.nodeB.wlan[0].mac.queue packetPushed:count 99
attr interpolationmode none
attr title "packet pushed, count"
scalar TARPNetwork.nodeB.wlan[0].mac.queue packetPushed:sum(packetBytes) 7524
attr interpolationmode none
attr title "packet pushed, sum(packetBytes)"
scalar TARPNetwork.nodeB.wlan[0].mac.queue packetDropQueueOverflow:count 0
attr interpolationmode none
attr source packetDropReasonIsQueueOverflow(packetDropped)
attr title "packet drops: queue overflow, count"
scalar TARPNetwork.nodeB.wlan[0].mac.queue packetDropQueueOverflow:sum(packetBytes) 0
attr interpolationmode none
attr source packetDropReasonIsQueueOverflow(packetDropped)
attr title "packet drops: queue overflow, sum(packetBytes)"
scalar TARPNetwork.nodeB.wlan[0].mac.queue packetRemoved:count 0
attr interpolationmode none
attr title "packets removed, count"
scalar TARPNetwork.nodeB.wlan[0].mac.queue packetRemoved:sum(packetBytes) 0
attr interpolationmode none
attr title "packets removed, sum(packetBytes)"
scalar TARPNetwork.nodeB.wlan[0].mac rcvdPkFromLl:count 396
attr interpolationmode none
attr source packetReceivedFromLower
attr title "packets received from lower layer, count"
scalar TARPNetwork.nodeB.wlan[0].mac rcvdPkFromLl:sum(packetBytes) 36432
attr interpolationmode none
attr source packetReceivedFromLower
attr title "packets received from lower layer, sum(packetBytes)"
scalar TARPNetwork.nodeB.wlan[0].mac sentDownPk:count 99
attr interpolationmode none
attr source packetSentToLower
attr title "packets sent to lower layer, count"
scalar TARPNetwork.nodeB.wlan[0].mac sentDownPk:sum(packetBytes) 9108
attr interpolationmode none
attr source packetSentToLower
attr title "packets sent to lower layer, sum(packetBytes)"
scalar TARPNetwork.nodeB.wlan[0].mac rcvdPkFromHl:count 99
attr interpolationmode none
attr source packetReceivedFromUpper
attr title "packets received from higher layer, count"
scalar TARPNetwork.nodeB.wlan[0].mac rcvdPkFromHl:sum(packetBytes) 7524
attr interpolationmode none
attr source packetReceivedFromUpper
attr title "packets received from higher layer, sum(packetBytes)"
scalar TARPNetwork.nodeB.wlan[0].mac passedUpPk:count 396
attr interpolationmode none
attr source packetSentToUpper
attr title "packets passed to higher layer, count"
scalar TARPNetwork.nodeB.wlan[0].mac passedUpPk:sum(packetBytes) 30096
attr interpolationmode none
attr source packetSentToUpper
attr title "packets passed to higher layer, sum(packetBytes)"
scalar TARPNetwork.nodeB.wlan[0].mac packetDropIncorrectlyReceived:count 0
attr interpolationmode none
attr source packetDropReasonIsIncorrectlyReceived(packetDropped)
attr title "packet drop: incorrectly received, count"
scalar TARPNetwork.nodeB.wlan[0].mac packetDropIncorrectlyReceived:sum(packetBytes) 0
attr interpolationmode none
attr source packetDropReasonIsIncorrectlyReceived(packetDropped)
attr title "packet drop: incorrectly received, sum(packetBytes)"
scalar TARPNetwork.nodeB.wlan[0].mac packetDropInterfaceDown:count 0
attr interpolationmode none
attr source packetDropReasonIsInterfaceDown(packetDropped)
attr title "packet drop: interface down, count"
scalar TARPNetwork.nodeB.wlan[0].mac packetDropInterfaceDown:sum(packetBytes) 0
attr interpolationmode none
attr source packetDropReasonIsInterfaceDown(packetDropped)
attr title "packet drop: interface down, sum(packetBytes)"
scalar TARPNetwork.nodeB.wlan[0].mac packetDropNotAddressedToUs:count 0
attr interpolationmode none
attr source packetDropReasonIsNotAddressedToUs(packetDropped)
attr title "packet drop: not addressed to us, count"
scalar TARPNetwork.nodeB.wlan[0].mac packetDropNotAddressedToUs:sum(packetBytes) 0
attr interpolationmode none
attr source packetDropReasonIsNotAddressedToUs(packetDropped)
attr title "packet drop: not addressed to us, sum(packetBytes)"
scalar TARPNetwork.nodeB.wlan[0].mac linkBroken:count 0
attr interpolationmode none
attr source linkBroken
attr title "link break, count"
statistic TARPNetwork.nodeB.wlan[0].radio minSnir:histogram
field count 0
field mean nan
field stddev nan
field min nan
field max nan
field sum 0
field sqrsum 0
attr source minimumSnir(packetSentToUpper)
attr title "Min SNIR, histogram"
bin	-inf	0
bin	0	0
bin	1	0
statistic TARPNetwork.nodeB.wlan[0].radio packetErrorRate:histogram
field count 396
field mean 0.77525252525253
field stddev 0.41794395707969
field min 0
field max 1
field sum 307
field sqrsum 307
attr source packetErrorRate(packetSentToUpper)
attr title "Packet error rate, histogram"
bin	-inf	0
bin	0	89
bin	1	307
bin	2	0
statistic TARPNetwork.nodeB.wlan[0].radio bitErrorRate:histogram
field count 396
field mean 0.77525252525253
field stddev 0.41794395707969
field min 0
field max 1
field sum 307
field sqrsum 307
attr source bitErrorRate(packetSentToUpper)
attr title "Bit error rate, histogram"
bin	-inf	0
bin	0	89
bin	1	307
bin	2	0
statistic TARPNetwork.nodeB.wlan[0].radio symbolErrorRate:histogram
field count 396
field mean 0.77525252525253
field stddev 0.41794395707969
field min 0
field max 1
field sum 307
field sqrsum 307
attr source symbolErrorRate(packetSentToUpper)
attr title "Symbol error rate, histogram"
bin	-inf	0
bin	0	89
bin	1	307
bin	2	0
scalar TARPNetwork.nodeB.wlan[0].radio transmissionState:count 199
attr interpolationmode sample-hold
attr source transmissionStateChanged
attr title "Radio transmission state, count"
scalar TARPNetwork.nodeB.wlan[0].radio receptionState:count 949
attr interpolationmode sample-hold
attr source receptionStateChanged
attr title "Radio reception state, count"
scalar TARPNetwork.nodeB.wlan[0].radio radioMode:count 3
attr interpolationmode sample-hold
attr source radioModeChanged
attr title "Radio mode, count"
scalar TARPNetwork.nodeB.generic.np nbDataPacketsReceived 99
scalar TARPNetwork.nodeB.generic.np nbDataPacketsSent 99
scalar TARPNetwork.nodeB.generic.np nbDataPacketsForwarded 0
scalar TARPNetwork.nodeB.generic.np meanNbHops 5.8686868686869
scalar TARPNetwork.nodeB.udp packetReceived:count 0
attr interpolationmode none
attr source packetReceived
attr title "packets received, count"
scalar TARPNetwork.nodeB.udp packetReceived:sum(packetBytes) 0
attr interpolationmode none
attr source packetReceived
attr title "packets received, sum(packetBytes)"
scalar TARPNetwork.nodeB.udp packetSent:count 0
attr interpolationmode none
attr source packetSent
attr title "packets sent, count"
scalar TARPNetwork.nodeB.udp packetSent:sum(packetBytes) 0
attr interpolationmode none
attr source packetSent
attr title "packets sent, sum(packetBytes)"
scalar TARPNetwork.nodeB.udp passedUpPk:count 0
attr interpolationmode none
attr source packetSentToUpper
attr title "packets passed up, count"
scalar TARPNetwork.nodeB.udp droppedPkWrongPort:count 0
attr interpolationmode none
attr source packetDropReasonIsNoPortFound(packetDropped)
attr title "packets dropped (wrong port), count"
scalar TARPNetwork.nodeB.udp droppedPkBadChecksum:count 0
attr interpolationmode none
attr source packetDropReasonIsIncorrectlyReceived(packetDropped)
attr title "packets dropped (checksum error), count"

