version 2
run RandomWaypointMobility-0-20210918-00:34:15-8352
attr configname RandomWaypointMobility
attr datetime 20210918-00:34:15
attr experiment RandomWaypointMobility
attr inifile omnetpp.ini
attr iterationvars ""
attr iterationvarsf ""
attr measurement ""
attr network TARPNetwork
attr processid 8352
attr repetition 0
attr replication #0
attr resultdir results
attr runnumber 0
attr seedset 0
param **.numNodes 60
param **.node[*].mobility.typename "\"RandomWaypointMobility\""
param **.node[*].mobility.speed 2mps
param **.node[*].mobility.waitTime 0s
param *.visualizer.mobilityVisualizer.displayVelocities true
param *.visualizer.mobilityVisualizer.displayMovementTrails true
param **.node[*].mobility.typename "\"StationaryMobility\""
param **.mobility.constraintAreaMinZ 0m
param **.mobility.constraintAreaMaxZ 0m
param **.mobility.constraintAreaMinX 0m
param **.mobility.constraintAreaMinY 0m
param **.mobility.constraintAreaMaxX 500m
param **.mobility.constraintAreaMaxY 500m
param **.numNodes 60
param *.node*.typename "\"Node\""
param *.nodeA.numApps 1
param *.nodeA.app[0].typename "\"PingApp\""
param *.nodeA.app[0].destAddr "\"nodeB\""
param *.nodeA.app[0].startTime 1s
param *.nodeA.app[0].sendInterval 1s
param **.wlan[*].typename "\"AckingWirelessInterface\""
param **.bitrate 2Mbps
param **.wlan[*].radio.transmitter.communicationRange 100m
param **.wlan[*].radio.transmitter.interferenceRange 0m
param **.wlan[*].radio.transmitter.detectionRange 0m
param **.wlan[*].radio.receiver.ignoreInterference true
param *.nodeA.wlan[0].radio.displayCommunicationRange true
param *.nodeB.wlan[0].radio.displayCommunicationRange true
param *.visualizer.physicalLinkVisualizer.displayLinks false
param *.visualizer.dataLinkVisualizer.displayLinks true
param *.visualizer.networkRouteVisualizer.displayRoutes false
param *.visualizer.*LinkVisualizer.lineShift 0
param *.visualizer.networkRouteVisualizer.lineShift 0
param *.visualizer.networkRouteVisualizer.packetFilter "\"TARP*\""
param **.hasIpv4 false
param **.hasIpv6 false
param **.hasGn true
param **.forwarding true
param **.generic.typename "\"SimpleNetworkLayer\""
param **.generic.np.typename "\"TarpF\""
param **.app[*].networkProtocol "\"tarpf\""
param **.plainFlooding true
param **.ddMaxEntries 100
param **.ddDelTime 100s
param **.spdRule false
param **.spdDelTime 100s

scalar TARPNetwork.radioMedium.propagation "Arrival computation count" 1860134
scalar TARPNetwork.radioMedium "transmission count" 30494
scalar TARPNetwork.radioMedium "signal send count" 1860134
scalar TARPNetwork.radioMedium "reception computation count" 1860073
scalar TARPNetwork.radioMedium "interference computation count" 4263242
scalar TARPNetwork.radioMedium "reception decision computation count" 81819
scalar TARPNetwork.radioMedium "listening decision computation count" 2321350
scalar TARPNetwork.radioMedium "reception cache hit" 96.150463693633
attr unit %
scalar TARPNetwork.radioMedium "interference cache hit" 66.666666666667
attr unit %
scalar TARPNetwork.radioMedium "noise cache hit" 0
attr unit %
scalar TARPNetwork.radioMedium "snir cache hit" 50
attr unit %
scalar TARPNetwork.radioMedium "reception decision cache hit" 50
attr unit %
scalar TARPNetwork.radioMedium "reception result cache hit" 0
attr unit %
scalar TARPNetwork.node[0].lo[0].lo rcvdPkFromHl:count 0
attr interpolationmode none
attr source packetReceivedFromUpper
attr title "packets received from higher layer, count"
scalar TARPNetwork.node[0].lo[0].lo rcvdPkFromHl:sum(packetBytes) 0
attr interpolationmode none
attr source packetReceivedFromUpper
attr title "packets received from higher layer, sum(packetBytes)"
scalar TARPNetwork.node[0].lo[0].lo passedUpPk:count 0
attr interpolationmode none
attr source packetSentToUpper
attr title "packets passed to higher layer, count"
scalar TARPNetwork.node[0].lo[0].lo passedUpPk:sum(packetBytes) 0
attr interpolationmode none
attr source packetSentToUpper
attr title "packets passed to higher layer, sum(packetBytes)"
scalar TARPNetwork.node[0].wlan[0].mac.queue packetPopped:count 501
attr interpolationmode none
attr title "packet popped, count"
scalar TARPNetwork.node[0].wlan[0].mac.queue packetPopped:sum(packetBytes) 38076
attr interpolationmode none
attr title "packet popped, sum(packetBytes)"
statistic TARPNetwork.node[0].wlan[0].mac.queue queueingTime:histogram
field count 501
field mean 0
field stddev 0
field min 0
field max 0
field sum 0
field sqrsum 0
attr interpolationmode none
attr source queueingTime(packetPopped)
attr title "queueing times, histogram"
attr unit s
bin	-inf	0
bin	-0.5	0
bin	-0.48	0
bin	-0.46	0
bin	-0.44	0
bin	-0.42	0
bin	-0.4	0
bin	-0.38	0
bin	-0.36	0
bin	-0.34	0
bin	-0.32	0
bin	-0.3	0
bin	-0.28	0
bin	-0.26	0
bin	-0.24	0
bin	-0.22	0
bin	-0.2	0
bin	-0.18	0
bin	-0.16	0
bin	-0.14	0
bin	-0.12	0
bin	-0.1	0
bin	-0.08	0
bin	-0.06	0
bin	-0.04	0
bin	-0.02	0
bin	0	501
bin	0.02	0
bin	0.04	0
bin	0.06	0
bin	0.08	0
bin	0.1	0
bin	0.12	0
bin	0.14	0
bin	0.16	0
bin	0.18	0
bin	0.2	0
bin	0.22	0
bin	0.24	0
bin	0.26	0
bin	0.28	0
bin	0.3	0
bin	0.32	0
bin	0.34	0
bin	0.36	0
bin	0.38	0
bin	0.4	0
bin	0.42	0
bin	0.44	0
bin	0.46	0
bin	0.48	0
bin	0.5	0
scalar TARPNetwork.node[0].wlan[0].mac.queue queueLength:max 1
attr interpolationmode sample-hold
attr source "count(packetPushed) - count(packetPopped) - count(packetRemoved) - count(packetDropped)"
attr title "queue length, max"
scalar TARPNetwork.node[0].wlan[0].mac.queue queueLength:timeavg 0
attr interpolationmode sample-hold
attr source "count(packetPushed) - count(packetPopped) - count(packetRemoved) - count(packetDropped)"
attr title "queue length, timeavg"
scalar TARPNetwork.node[0].wlan[0].mac.queue packetPushed:count 501
attr interpolationmode none
attr title "packet pushed, count"
scalar TARPNetwork.node[0].wlan[0].mac.queue packetPushed:sum(packetBytes) 38076
attr interpolationmode none
attr title "packet pushed, sum(packetBytes)"
scalar TARPNetwork.node[0].wlan[0].mac.queue packetDropQueueOverflow:count 0
attr interpolationmode none
attr source packetDropReasonIsQueueOverflow(packetDropped)
attr title "packet drops: queue overflow, count"
scalar TARPNetwork.node[0].wlan[0].mac.queue packetDropQueueOverflow:sum(packetBytes) 0
attr interpolationmode none
attr source packetDropReasonIsQueueOverflow(packetDropped)
attr title "packet drops: queue overflow, sum(packetBytes)"
scalar TARPNetwork.node[0].wlan[0].mac.queue packetRemoved:count 0
attr interpolationmode none
attr title "packets removed, count"
scalar TARPNetwork.node[0].wlan[0].mac.queue packetRemoved:sum(packetBytes) 0
attr interpolationmode none
attr title "packets removed, sum(packetBytes)"
scalar TARPNetwork.node[0].wlan[0].mac rcvdPkFromLl:count 1331
attr interpolationmode none
attr source packetReceivedFromLower
attr title "packets received from lower layer, count"
scalar TARPNetwork.node[0].wlan[0].mac rcvdPkFromLl:sum(packetBytes) 122452
attr interpolationmode none
attr source packetReceivedFromLower
attr title "packets received from lower layer, sum(packetBytes)"
scalar TARPNetwork.node[0].wlan[0].mac sentDownPk:count 501
attr interpolationmode none
attr source packetSentToLower
attr title "packets sent to lower layer, count"
scalar TARPNetwork.node[0].wlan[0].mac sentDownPk:sum(packetBytes) 46092
attr interpolationmode none
attr source packetSentToLower
attr title "packets sent to lower layer, sum(packetBytes)"
scalar TARPNetwork.node[0].wlan[0].mac rcvdPkFromHl:count 501
attr interpolationmode none
attr source packetReceivedFromUpper
attr title "packets received from higher layer, count"
scalar TARPNetwork.node[0].wlan[0].mac rcvdPkFromHl:sum(packetBytes) 38076
attr interpolationmode none
attr source packetReceivedFromUpper
attr title "packets received from higher layer, sum(packetBytes)"
scalar TARPNetwork.node[0].wlan[0].mac passedUpPk:count 1331
attr interpolationmode none
attr source packetSentToUpper
attr title "packets passed to higher layer, count"
scalar TARPNetwork.node[0].wlan[0].mac passedUpPk:sum(packetBytes) 101156
attr interpolationmode none
attr source packetSentToUpper
attr title "packets passed to higher layer, sum(packetBytes)"
scalar TARPNetwork.node[0].wlan[0].mac packetDropIncorrectlyReceived:count 0
attr interpolationmode none
attr source packetDropReasonIsIncorrectlyReceived(packetDropped)
attr title "packet drop: incorrectly received, count"
scalar TARPNetwork.node[0].wlan[0].mac packetDropIncorrectlyReceived:sum(packetBytes) 0
attr interpolationmode none
attr source packetDropReasonIsIncorrectlyReceived(packetDropped)
attr title "packet drop: incorrectly received, sum(packetBytes)"
scalar TARPNetwork.node[0].wlan[0].mac packetDropInterfaceDown:count 0
attr interpolationmode none
attr source packetDropReasonIsInterfaceDown(packetDropped)
attr title "packet drop: interface down, count"
scalar TARPNetwork.node[0].wlan[0].mac packetDropInterfaceDown:sum(packetBytes) 0
attr interpolationmode none
attr source packetDropReasonIsInterfaceDown(packetDropped)
attr title "packet drop: interface down, sum(packetBytes)"
scalar TARPNetwork.node[0].wlan[0].mac packetDropNotAddressedToUs:count 0
attr interpolationmode none
attr source packetDropReasonIsNotAddressedToUs(packetDropped)
attr title "packet drop: not addressed to us, count"
scalar TARPNetwork.node[0].wlan[0].mac packetDropNotAddressedToUs:sum(packetBytes) 0
attr interpolationmode none
attr source packetDropReasonIsNotAddressedToUs(packetDropped)
attr title "packet drop: not addressed to us, sum(packetBytes)"
scalar TARPNetwork.node[0].wlan[0].mac linkBroken:count 0
attr interpolationmode none
attr source linkBroken
attr title "link break, count"
statistic TARPNetwork.node[0].wlan[0].radio minSnir:histogram
field count 0
field mean nan
field stddev nan
field min nan
field max nan
field sum 0
field sqrsum 0
attr source minimumSnir(packetSentToUpper)
attr title "Min SNIR, histogram"
bin	-inf	0
bin	0	0
bin	1	0
statistic TARPNetwork.node[0].wlan[0].radio packetErrorRate:histogram
field count 1331
field mean 0.9060856498873
field stddev 0.29181916616509
field min 0
field max 1
field sum 1206
field sqrsum 1206
attr source packetErrorRate(packetSentToUpper)
attr title "Packet error rate, histogram"
bin	-inf	0
bin	0	125
bin	1	1206
bin	2	0
statistic TARPNetwork.node[0].wlan[0].radio bitErrorRate:histogram
field count 1331
field mean 0.9060856498873
field stddev 0.29181916616509
field min 0
field max 1
field sum 1206
field sqrsum 1206
attr source bitErrorRate(packetSentToUpper)
attr title "Bit error rate, histogram"
bin	-inf	0
bin	0	125
bin	1	1206
bin	2	0
statistic TARPNetwork.node[0].wlan[0].radio symbolErrorRate:histogram
field count 1331
field mean 0.9060856498873
field stddev 0.29181916616509
field min 0
field max 1
field sum 1206
field sqrsum 1206
attr source symbolErrorRate(packetSentToUpper)
attr title "Symbol error rate, histogram"
bin	-inf	0
bin	0	125
bin	1	1206
bin	2	0
scalar TARPNetwork.node[0].wlan[0].radio transmissionState:count 1003
attr interpolationmode sample-hold
attr source transmissionStateChanged
attr title "Radio transmission state, count"
scalar TARPNetwork.node[0].wlan[0].radio receptionState:count 3438
attr interpolationmode sample-hold
attr source receptionStateChanged
attr title "Radio reception state, count"
scalar TARPNetwork.node[0].wlan[0].radio radioMode:count 3
attr interpolationmode sample-hold
attr source radioModeChanged
attr title "Radio mode, count"
scalar TARPNetwork.node[0].generic.np nbDataPacketsReceived 0
scalar TARPNetwork.node[0].generic.np nbDataPacketsSent 0
scalar TARPNetwork.node[0].generic.np nbDataPacketsForwarded 501
scalar TARPNetwork.node[0].generic.np meanNbHops 0
scalar TARPNetwork.node[0].generic.np nbSPD 0
scalar TARPNetwork.node[0].udp packetReceived:count 0
attr interpolationmode none
attr source packetReceived
attr title "packets received, count"
scalar TARPNetwork.node[0].udp packetReceived:sum(packetBytes) 0
attr interpolationmode none
attr source packetReceived
attr title "packets received, sum(packetBytes)"
scalar TARPNetwork.node[0].udp packetSent:count 0
attr interpolationmode none
attr source packetSent
attr title "packets sent, count"
scalar TARPNetwork.node[0].udp packetSent:sum(packetBytes) 0
attr interpolationmode none
attr source packetSent
attr title "packets sent, sum(packetBytes)"
scalar TARPNetwork.node[0].udp passedUpPk:count 0
attr interpolationmode none
attr source packetSentToUpper
attr title "packets passed up, count"
scalar TARPNetwork.node[0].udp droppedPkWrongPort:count 0
attr interpolationmode none
attr source packetDropReasonIsNoPortFound(packetDropped)
attr title "packets dropped (wrong port), count"
scalar TARPNetwork.node[0].udp droppedPkBadChecksum:count 0
attr interpolationmode none
attr source packetDropReasonIsIncorrectlyReceived(packetDropped)
attr title "packets dropped (checksum error), count"
scalar TARPNetwork.node[1].lo[0].lo rcvdPkFromHl:count 0
attr interpolationmode none
attr source packetReceivedFromUpper
attr title "packets received from higher layer, count"
scalar TARPNetwork.node[1].lo[0].lo rcvdPkFromHl:sum(packetBytes) 0
attr interpolationmode none
attr source packetReceivedFromUpper
attr title "packets received from higher layer, sum(packetBytes)"
scalar TARPNetwork.node[1].lo[0].lo passedUpPk:count 0
attr interpolationmode none
attr source packetSentToUpper
attr title "packets passed to higher layer, count"
scalar TARPNetwork.node[1].lo[0].lo passedUpPk:sum(packetBytes) 0
attr interpolationmode none
attr source packetSentToUpper
attr title "packets passed to higher layer, sum(packetBytes)"
scalar TARPNetwork.node[1].wlan[0].mac.queue packetPopped:count 501
attr interpolationmode none
attr title "packet popped, count"
scalar TARPNetwork.node[1].wlan[0].mac.queue packetPopped:sum(packetBytes) 38076
attr interpolationmode none
attr title "packet popped, sum(packetBytes)"
statistic TARPNetwork.node[1].wlan[0].mac.queue queueingTime:histogram
field count 501
field mean 0
field stddev 0
field min 0
field max 0
field sum 0
field sqrsum 0
attr interpolationmode none
attr source queueingTime(packetPopped)
attr title "queueing times, histogram"
attr unit s
bin	-inf	0
bin	-0.5	0
bin	-0.48	0
bin	-0.46	0
bin	-0.44	0
bin	-0.42	0
bin	-0.4	0
bin	-0.38	0
bin	-0.36	0
bin	-0.34	0
bin	-0.32	0
bin	-0.3	0
bin	-0.28	0
bin	-0.26	0
bin	-0.24	0
bin	-0.22	0
bin	-0.2	0
bin	-0.18	0
bin	-0.16	0
bin	-0.14	0
bin	-0.12	0
bin	-0.1	0
bin	-0.08	0
bin	-0.06	0
bin	-0.04	0
bin	-0.02	0
bin	0	501
bin	0.02	0
bin	0.04	0
bin	0.06	0
bin	0.08	0
bin	0.1	0
bin	0.12	0
bin	0.14	0
bin	0.16	0
bin	0.18	0
bin	0.2	0
bin	0.22	0
bin	0.24	0
bin	0.26	0
bin	0.28	0
bin	0.3	0
bin	0.32	0
bin	0.34	0
bin	0.36	0
bin	0.38	0
bin	0.4	0
bin	0.42	0
bin	0.44	0
bin	0.46	0
bin	0.48	0
bin	0.5	0
scalar TARPNetwork.node[1].wlan[0].mac.queue queueLength:max 1
attr interpolationmode sample-hold
attr source "count(packetPushed) - count(packetPopped) - count(packetRemoved) - count(packetDropped)"
attr title "queue length, max"
scalar TARPNetwork.node[1].wlan[0].mac.queue queueLength:timeavg 0
attr interpolationmode sample-hold
attr source "count(packetPushed) - count(packetPopped) - count(packetRemoved) - count(packetDropped)"
attr title "queue length, timeavg"
scalar TARPNetwork.node[1].wlan[0].mac.queue packetPushed:count 501
attr interpolationmode none
attr title "packet pushed, count"
scalar TARPNetwork.node[1].wlan[0].mac.queue packetPushed:sum(packetBytes) 38076
attr interpolationmode none
attr title "packet pushed, sum(packetBytes)"
scalar TARPNetwork.node[1].wlan[0].mac.queue packetDropQueueOverflow:count 0
attr interpolationmode none
attr source packetDropReasonIsQueueOverflow(packetDropped)
attr title "packet drops: queue overflow, count"
scalar TARPNetwork.node[1].wlan[0].mac.queue packetDropQueueOverflow:sum(packetBytes) 0
attr interpolationmode none
attr source packetDropReasonIsQueueOverflow(packetDropped)
attr title "packet drops: queue overflow, sum(packetBytes)"
scalar TARPNetwork.node[1].wlan[0].mac.queue packetRemoved:count 0
attr interpolationmode none
attr title "packets removed, count"
scalar TARPNetwork.node[1].wlan[0].mac.queue packetRemoved:sum(packetBytes) 0
attr interpolationmode none
attr title "packets removed, sum(packetBytes)"
scalar TARPNetwork.node[1].wlan[0].mac rcvdPkFromLl:count 1377
attr interpolationmode none
attr source packetReceivedFromLower
attr title "packets received from lower layer, count"
scalar TARPNetwork.node[1].wlan[0].mac rcvdPkFromLl:sum(packetBytes) 126684
attr interpolationmode none
attr source packetReceivedFromLower
attr title "packets received from lower layer, sum(packetBytes)"
scalar TARPNetwork.node[1].wlan[0].mac sentDownPk:count 501
attr interpolationmode none
attr source packetSentToLower
attr title "packets sent to lower layer, count"
scalar TARPNetwork.node[1].wlan[0].mac sentDownPk:sum(packetBytes) 46092
attr interpolationmode none
attr source packetSentToLower
attr title "packets sent to lower layer, sum(packetBytes)"
scalar TARPNetwork.node[1].wlan[0].mac rcvdPkFromHl:count 501
attr interpolationmode none
attr source packetReceivedFromUpper
attr title "packets received from higher layer, count"
scalar TARPNetwork.node[1].wlan[0].mac rcvdPkFromHl:sum(packetBytes) 38076
attr interpolationmode none
attr source packetReceivedFromUpper
attr title "packets received from higher layer, sum(packetBytes)"
scalar TARPNetwork.node[1].wlan[0].mac passedUpPk:count 1377
attr interpolationmode none
attr source packetSentToUpper
attr title "packets passed to higher layer, count"
scalar TARPNetwork.node[1].wlan[0].mac passedUpPk:sum(packetBytes) 104652
attr interpolationmode none
attr source packetSentToUpper
attr title "packets passed to higher layer, sum(packetBytes)"
scalar TARPNetwork.node[1].wlan[0].mac packetDropIncorrectlyReceived:count 0
attr interpolationmode none
attr source packetDropReasonIsIncorrectlyReceived(packetDropped)
attr title "packet drop: incorrectly received, count"
scalar TARPNetwork.node[1].wlan[0].mac packetDropIncorrectlyReceived:sum(packetBytes) 0
attr interpolationmode none
attr source packetDropReasonIsIncorrectlyReceived(packetDropped)
attr title "packet drop: incorrectly received, sum(packetBytes)"
scalar TARPNetwork.node[1].wlan[0].mac packetDropInterfaceDown:count 0
attr interpolationmode none
attr source packetDropReasonIsInterfaceDown(packetDropped)
attr title "packet drop: interface down, count"
scalar TARPNetwork.node[1].wlan[0].mac packetDropInterfaceDown:sum(packetBytes) 0
attr interpolationmode none
attr source packetDropReasonIsInterfaceDown(packetDropped)
attr title "packet drop: interface down, sum(packetBytes)"
scalar TARPNetwork.node[1].wlan[0].mac packetDropNotAddressedToUs:count 0
attr interpolationmode none
attr source packetDropReasonIsNotAddressedToUs(packetDropped)
attr title "packet drop: not addressed to us, count"
scalar TARPNetwork.node[1].wlan[0].mac packetDropNotAddressedToUs:sum(packetBytes) 0
attr interpolationmode none
attr source packetDropReasonIsNotAddressedToUs(packetDropped)
attr title "packet drop: not addressed to us, sum(packetBytes)"
scalar TARPNetwork.node[1].wlan[0].mac linkBroken:count 0
attr interpolationmode none
attr source linkBroken
attr title "link break, count"
statistic TARPNetwork.node[1].wlan[0].radio minSnir:histogram
field count 0
field mean nan
field stddev nan
field min nan
field max nan
field sum 0
field sqrsum 0
attr source minimumSnir(packetSentToUpper)
attr title "Min SNIR, histogram"
bin	-inf	0
bin	0	0
bin	1	0
statistic TARPNetwork.node[1].wlan[0].radio packetErrorRate:histogram
field count 1377
field mean 0.7683369644154
field stddev 0.42204813772662
field min 0
field max 1
field sum 1058
field sqrsum 1058
attr source packetErrorRate(packetSentToUpper)
attr title "Packet error rate, histogram"
bin	-inf	0
bin	0	319
bin	1	1058
bin	2	0
statistic TARPNetwork.node[1].wlan[0].radio bitErrorRate:histogram
field count 1377
field mean 0.7683369644154
field stddev 0.42204813772662
field min 0
field max 1
field sum 1058
field sqrsum 1058
attr source bitErrorRate(packetSentToUpper)
attr title "Bit error rate, histogram"
bin	-inf	0
bin	0	319
bin	1	1058
bin	2	0
statistic TARPNetwork.node[1].wlan[0].radio symbolErrorRate:histogram
field count 1377
field mean 0.7683369644154
field stddev 0.42204813772662
field min 0
field max 1
field sum 1058
field sqrsum 1058
attr source symbolErrorRate(packetSentToUpper)
attr title "Symbol error rate, histogram"
bin	-inf	0
bin	0	319
bin	1	1058
bin	2	0
scalar TARPNetwork.node[1].wlan[0].radio transmissionState:count 1003
attr interpolationmode sample-hold
attr source transmissionStateChanged
attr title "Radio transmission state, count"
scalar TARPNetwork.node[1].wlan[0].radio receptionState:count 3550
attr interpolationmode sample-hold
attr source receptionStateChanged
attr title "Radio reception state, count"
scalar TARPNetwork.node[1].wlan[0].radio radioMode:count 3
attr interpolationmode sample-hold
attr source radioModeChanged
attr title "Radio mode, count"
scalar TARPNetwork.node[1].generic.np nbDataPacketsReceived 0
scalar TARPNetwork.node[1].generic.np nbDataPacketsSent 0
scalar TARPNetwork.node[1].generic.np nbDataPacketsForwarded 501
scalar TARPNetwork.node[1].generic.np meanNbHops 0
scalar TARPNetwork.node[1].generic.np nbSPD 0
scalar TARPNetwork.node[1].udp packetReceived:count 0
attr interpolationmode none
attr source packetReceived
attr title "packets received, count"
scalar TARPNetwork.node[1].udp packetReceived:sum(packetBytes) 0
attr interpolationmode none
attr source packetReceived
attr title "packets received, sum(packetBytes)"
scalar TARPNetwork.node[1].udp packetSent:count 0
attr interpolationmode none
attr source packetSent
attr title "packets sent, count"
scalar TARPNetwork.node[1].udp packetSent:sum(packetBytes) 0
attr interpolationmode none
attr source packetSent
attr title "packets sent, sum(packetBytes)"
scalar TARPNetwork.node[1].udp passedUpPk:count 0
attr interpolationmode none
attr source packetSentToUpper
attr title "packets passed up, count"
scalar TARPNetwork.node[1].udp droppedPkWrongPort:count 0
attr interpolationmode none
attr source packetDropReasonIsNoPortFound(packetDropped)
attr title "packets dropped (wrong port), count"
scalar TARPNetwork.node[1].udp droppedPkBadChecksum:count 0
attr interpolationmode none
attr source packetDropReasonIsIncorrectlyReceived(packetDropped)
attr title "packets dropped (checksum error), count"
scalar TARPNetwork.node[2].lo[0].lo rcvdPkFromHl:count 0
attr interpolationmode none
attr source packetReceivedFromUpper
attr title "packets received from higher layer, count"
scalar TARPNetwork.node[2].lo[0].lo rcvdPkFromHl:sum(packetBytes) 0
attr interpolationmode none
attr source packetReceivedFromUpper
attr title "packets received from higher layer, sum(packetBytes)"
scalar TARPNetwork.node[2].lo[0].lo passedUpPk:count 0
attr interpolationmode none
attr source packetSentToUpper
attr title "packets passed to higher layer, count"
scalar TARPNetwork.node[2].lo[0].lo passedUpPk:sum(packetBytes) 0
attr interpolationmode none
attr source packetSentToUpper
attr title "packets passed to higher layer, sum(packetBytes)"
scalar TARPNetwork.node[2].wlan[0].mac.queue packetPopped:count 491
attr interpolationmode none
attr title "packet popped, count"
scalar TARPNetwork.node[2].wlan[0].mac.queue packetPopped:sum(packetBytes) 37316
attr interpolationmode none
attr title "packet popped, sum(packetBytes)"
statistic TARPNetwork.node[2].wlan[0].mac.queue queueingTime:histogram
field count 491
field mean 0
field stddev 0
field min 0
field max 0
field sum 0
field sqrsum 0
attr interpolationmode none
attr source queueingTime(packetPopped)
attr title "queueing times, histogram"
attr unit s
bin	-inf	0
bin	-0.5	0
bin	-0.48	0
bin	-0.46	0
bin	-0.44	0
bin	-0.42	0
bin	-0.4	0
bin	-0.38	0
bin	-0.36	0
bin	-0.34	0
bin	-0.32	0
bin	-0.3	0
bin	-0.28	0
bin	-0.26	0
bin	-0.24	0
bin	-0.22	0
bin	-0.2	0
bin	-0.18	0
bin	-0.16	0
bin	-0.14	0
bin	-0.12	0
bin	-0.1	0
bin	-0.08	0
bin	-0.06	0
bin	-0.04	0
bin	-0.02	0
bin	0	491
bin	0.02	0
bin	0.04	0
bin	0.06	0
bin	0.08	0
bin	0.1	0
bin	0.12	0
bin	0.14	0
bin	0.16	0
bin	0.18	0
bin	0.2	0
bin	0.22	0
bin	0.24	0
bin	0.26	0
bin	0.28	0
bin	0.3	0
bin	0.32	0
bin	0.34	0
bin	0.36	0
bin	0.38	0
bin	0.4	0
bin	0.42	0
bin	0.44	0
bin	0.46	0
bin	0.48	0
bin	0.5	0
scalar TARPNetwork.node[2].wlan[0].mac.queue queueLength:max 1
attr interpolationmode sample-hold
attr source "count(packetPushed) - count(packetPopped) - count(packetRemoved) - count(packetDropped)"
attr title "queue length, max"
scalar TARPNetwork.node[2].wlan[0].mac.queue queueLength:timeavg 0
attr interpolationmode sample-hold
attr source "count(packetPushed) - count(packetPopped) - count(packetRemoved) - count(packetDropped)"
attr title "queue length, timeavg"
scalar TARPNetwork.node[2].wlan[0].mac.queue packetPushed:count 491
attr interpolationmode none
attr title "packet pushed, count"
scalar TARPNetwork.node[2].wlan[0].mac.queue packetPushed:sum(packetBytes) 37316
attr interpolationmode none
attr title "packet pushed, sum(packetBytes)"
scalar TARPNetwork.node[2].wlan[0].mac.queue packetDropQueueOverflow:count 0
attr interpolationmode none
attr source packetDropReasonIsQueueOverflow(packetDropped)
attr title "packet drops: queue overflow, count"
scalar TARPNetwork.node[2].wlan[0].mac.queue packetDropQueueOverflow:sum(packetBytes) 0
attr interpolationmode none
attr source packetDropReasonIsQueueOverflow(packetDropped)
attr title "packet drops: queue overflow, sum(packetBytes)"
scalar TARPNetwork.node[2].wlan[0].mac.queue packetRemoved:count 0
attr interpolationmode none
attr title "packets removed, count"
scalar TARPNetwork.node[2].wlan[0].mac.queue packetRemoved:sum(packetBytes) 0
attr interpolationmode none
attr title "packets removed, sum(packetBytes)"
scalar TARPNetwork.node[2].wlan[0].mac rcvdPkFromLl:count 1367
attr interpolationmode none
attr source packetReceivedFromLower
attr title "packets received from lower layer, count"
scalar TARPNetwork.node[2].wlan[0].mac rcvdPkFromLl:sum(packetBytes) 125764
attr interpolationmode none
attr source packetReceivedFromLower
attr title "packets received from lower layer, sum(packetBytes)"
scalar TARPNetwork.node[2].wlan[0].mac sentDownPk:count 491
attr interpolationmode none
attr source packetSentToLower
attr title "packets sent to lower layer, count"
scalar TARPNetwork.node[2].wlan[0].mac sentDownPk:sum(packetBytes) 45172
attr interpolationmode none
attr source packetSentToLower
attr title "packets sent to lower layer, sum(packetBytes)"
scalar TARPNetwork.node[2].wlan[0].mac rcvdPkFromHl:count 491
attr interpolationmode none
attr source packetReceivedFromUpper
attr title "packets received from higher layer, count"
scalar TARPNetwork.node[2].wlan[0].mac rcvdPkFromHl:sum(packetBytes) 37316
attr interpolationmode none
attr source packetReceivedFromUpper
attr title "packets received from higher layer, sum(packetBytes)"
scalar TARPNetwork.node[2].wlan[0].mac passedUpPk:count 1367
attr interpolationmode none
attr source packetSentToUpper
attr title "packets passed to higher layer, count"
scalar TARPNetwork.node[2].wlan[0].mac passedUpPk:sum(packetBytes) 103892
attr interpolationmode none
attr source packetSentToUpper
attr title "packets passed to higher layer, sum(packetBytes)"
scalar TARPNetwork.node[2].wlan[0].mac packetDropIncorrectlyReceived:count 0
attr interpolationmode none
attr source packetDropReasonIsIncorrectlyReceived(packetDropped)
attr title "packet drop: incorrectly received, count"
scalar TARPNetwork.node[2].wlan[0].mac packetDropIncorrectlyReceived:sum(packetBytes) 0
attr interpolationmode none
attr source packetDropReasonIsIncorrectlyReceived(packetDropped)
attr title "packet drop: incorrectly received, sum(packetBytes)"
scalar TARPNetwork.node[2].wlan[0].mac packetDropInterfaceDown:count 0
attr interpolationmode none
attr source packetDropReasonIsInterfaceDown(packetDropped)
attr title "packet drop: interface down, count"
scalar TARPNetwork.node[2].wlan[0].mac packetDropInterfaceDown:sum(packetBytes) 0
attr interpolationmode none
attr source packetDropReasonIsInterfaceDown(packetDropped)
attr title "packet drop: interface down, sum(packetBytes)"
scalar TARPNetwork.node[2].wlan[0].mac packetDropNotAddressedToUs:count 0
attr interpolationmode none
attr source packetDropReasonIsNotAddressedToUs(packetDropped)
attr title "packet drop: not addressed to us, count"
scalar TARPNetwork.node[2].wlan[0].mac packetDropNotAddressedToUs:sum(packetBytes) 0
attr interpolationmode none
attr source packetDropReasonIsNotAddressedToUs(packetDropped)
attr title "packet drop: not addressed to us, sum(packetBytes)"
scalar TARPNetwork.node[2].wlan[0].mac linkBroken:count 0
attr interpolationmode none
attr source linkBroken
attr title "link break, count"
statistic TARPNetwork.node[2].wlan[0].radio minSnir:histogram
field count 0
field mean nan
field stddev nan
field min nan
field max nan
field sum 0
field sqrsum 0
attr source minimumSnir(packetSentToUpper)
attr title "Min SNIR, histogram"
bin	-inf	0
bin	0	0
bin	1	0
statistic TARPNetwork.node[2].wlan[0].radio packetErrorRate:histogram
field count 1367
field mean 0.83321141185077
field stddev 0.37292343734147
field min 0
field max 1
field sum 1139
field sqrsum 1139
attr source packetErrorRate(packetSentToUpper)
attr title "Packet error rate, histogram"
bin	-inf	0
bin	0	228
bin	1	1139
bin	2	0
statistic TARPNetwork.node[2].wlan[0].radio bitErrorRate:histogram
field count 1367
field mean 0.83321141185077
field stddev 0.37292343734147
field min 0
field max 1
field sum 1139
field sqrsum 1139
attr source bitErrorRate(packetSentToUpper)
attr title "Bit error rate, histogram"
bin	-inf	0
bin	0	228
bin	1	1139
bin	2	0
statistic TARPNetwork.node[2].wlan[0].radio symbolErrorRate:histogram
field count 1367
field mean 0.83321141185077
field stddev 0.37292343734147
field min 0
field max 1
field sum 1139
field sqrsum 1139
attr source symbolErrorRate(packetSentToUpper)
attr title "Symbol error rate, histogram"
bin	-inf	0
bin	0	228
bin	1	1139
bin	2	0
scalar TARPNetwork.node[2].wlan[0].radio transmissionState:count 983
attr interpolationmode sample-hold
attr source transmissionStateChanged
attr title "Radio transmission state, count"
scalar TARPNetwork.node[2].wlan[0].radio receptionState:count 3451
attr interpolationmode sample-hold
attr source receptionStateChanged
attr title "Radio reception state, count"
scalar TARPNetwork.node[2].wlan[0].radio radioMode:count 3
attr interpolationmode sample-hold
attr source radioModeChanged
attr title "Radio mode, count"
scalar TARPNetwork.node[2].generic.np nbDataPacketsReceived 0
scalar TARPNetwork.node[2].generic.np nbDataPacketsSent 0
scalar TARPNetwork.node[2].generic.np nbDataPacketsForwarded 491
scalar TARPNetwork.node[2].generic.np meanNbHops 0
scalar TARPNetwork.node[2].generic.np nbSPD 0
scalar TARPNetwork.node[2].udp packetReceived:count 0
attr interpolationmode none
attr source packetReceived
attr title "packets received, count"
scalar TARPNetwork.node[2].udp packetReceived:sum(packetBytes) 0
attr interpolationmode none
attr source packetReceived
attr title "packets received, sum(packetBytes)"
scalar TARPNetwork.node[2].udp packetSent:count 0
attr interpolationmode none
attr source packetSent
attr title "packets sent, count"
scalar TARPNetwork.node[2].udp packetSent:sum(packetBytes) 0
attr interpolationmode none
attr source packetSent
attr title "packets sent, sum(packetBytes)"
scalar TARPNetwork.node[2].udp passedUpPk:count 0
attr interpolationmode none
attr source packetSentToUpper
attr title "packets passed up, count"
scalar TARPNetwork.node[2].udp droppedPkWrongPort:count 0
attr interpolationmode none
attr source packetDropReasonIsNoPortFound(packetDropped)
attr title "packets dropped (wrong port), count"
scalar TARPNetwork.node[2].udp droppedPkBadChecksum:count 0
attr interpolationmode none
attr source packetDropReasonIsIncorrectlyReceived(packetDropped)
attr title "packets dropped (checksum error), count"
scalar TARPNetwork.node[3].lo[0].lo rcvdPkFromHl:count 0
attr interpolationmode none
attr source packetReceivedFromUpper
attr title "packets received from higher layer, count"
scalar TARPNetwork.node[3].lo[0].lo rcvdPkFromHl:sum(packetBytes) 0
attr interpolationmode none
attr source packetReceivedFromUpper
attr title "packets received from higher layer, sum(packetBytes)"
scalar TARPNetwork.node[3].lo[0].lo passedUpPk:count 0
attr interpolationmode none
attr source packetSentToUpper
attr title "packets passed to higher layer, count"
scalar TARPNetwork.node[3].lo[0].lo passedUpPk:sum(packetBytes) 0
attr interpolationmode none
attr source packetSentToUpper
attr title "packets passed to higher layer, sum(packetBytes)"
scalar TARPNetwork.node[3].wlan[0].mac.queue packetPopped:count 501
attr interpolationmode none
attr title "packet popped, count"
scalar TARPNetwork.node[3].wlan[0].mac.queue packetPopped:sum(packetBytes) 38076
attr interpolationmode none
attr title "packet popped, sum(packetBytes)"
statistic TARPNetwork.node[3].wlan[0].mac.queue queueingTime:histogram
field count 501
field mean 0
field stddev 0
field min 0
field max 0
field sum 0
field sqrsum 0
attr interpolationmode none
attr source queueingTime(packetPopped)
attr title "queueing times, histogram"
attr unit s
bin	-inf	0
bin	-0.5	0
bin	-0.48	0
bin	-0.46	0
bin	-0.44	0
bin	-0.42	0
bin	-0.4	0
bin	-0.38	0
bin	-0.36	0
bin	-0.34	0
bin	-0.32	0
bin	-0.3	0
bin	-0.28	0
bin	-0.26	0
bin	-0.24	0
bin	-0.22	0
bin	-0.2	0
bin	-0.18	0
bin	-0.16	0
bin	-0.14	0
bin	-0.12	0
bin	-0.1	0
bin	-0.08	0
bin	-0.06	0
bin	-0.04	0
bin	-0.02	0
bin	0	501
bin	0.02	0
bin	0.04	0
bin	0.06	0
bin	0.08	0
bin	0.1	0
bin	0.12	0
bin	0.14	0
bin	0.16	0
bin	0.18	0
bin	0.2	0
bin	0.22	0
bin	0.24	0
bin	0.26	0
bin	0.28	0
bin	0.3	0
bin	0.32	0
bin	0.34	0
bin	0.36	0
bin	0.38	0
bin	0.4	0
bin	0.42	0
bin	0.44	0
bin	0.46	0
bin	0.48	0
bin	0.5	0
scalar TARPNetwork.node[3].wlan[0].mac.queue queueLength:max 1
attr interpolationmode sample-hold
attr source "count(packetPushed) - count(packetPopped) - count(packetRemoved) - count(packetDropped)"
attr title "queue length, max"
scalar TARPNetwork.node[3].wlan[0].mac.queue queueLength:timeavg 0
attr interpolationmode sample-hold
attr source "count(packetPushed) - count(packetPopped) - count(packetRemoved) - count(packetDropped)"
attr title "queue length, timeavg"
scalar TARPNetwork.node[3].wlan[0].mac.queue packetPushed:count 501
attr interpolationmode none
attr title "packet pushed, count"
scalar TARPNetwork.node[3].wlan[0].mac.queue packetPushed:sum(packetBytes) 38076
attr interpolationmode none
attr title "packet pushed, sum(packetBytes)"
scalar TARPNetwork.node[3].wlan[0].mac.queue packetDropQueueOverflow:count 0
attr interpolationmode none
attr source packetDropReasonIsQueueOverflow(packetDropped)
attr title "packet drops: queue overflow, count"
scalar TARPNetwork.node[3].wlan[0].mac.queue packetDropQueueOverflow:sum(packetBytes) 0
attr interpolationmode none
attr source packetDropReasonIsQueueOverflow(packetDropped)
attr title "packet drops: queue overflow, sum(packetBytes)"
scalar TARPNetwork.node[3].wlan[0].mac.queue packetRemoved:count 0
attr interpolationmode none
attr title "packets removed, count"
scalar TARPNetwork.node[3].wlan[0].mac.queue packetRemoved:sum(packetBytes) 0
attr interpolationmode none
attr title "packets removed, sum(packetBytes)"
scalar TARPNetwork.node[3].wlan[0].mac rcvdPkFromLl:count 1288
attr interpolationmode none
attr source packetReceivedFromLower
attr title "packets received from lower layer, count"
scalar TARPNetwork.node[3].wlan[0].mac rcvdPkFromLl:sum(packetBytes) 118496
attr interpolationmode none
attr source packetReceivedFromLower
attr title "packets received from lower layer, sum(packetBytes)"
scalar TARPNetwork.node[3].wlan[0].mac sentDownPk:count 501
attr interpolationmode none
attr source packetSentToLower
attr title "packets sent to lower layer, count"
scalar TARPNetwork.node[3].wlan[0].mac sentDownPk:sum(packetBytes) 46092
attr interpolationmode none
attr source packetSentToLower
attr title "packets sent to lower layer, sum(packetBytes)"
scalar TARPNetwork.node[3].wlan[0].mac rcvdPkFromHl:count 501
attr interpolationmode none
attr source packetReceivedFromUpper
attr title "packets received from higher layer, count"
scalar TARPNetwork.node[3].wlan[0].mac rcvdPkFromHl:sum(packetBytes) 38076
attr interpolationmode none
attr source packetReceivedFromUpper
attr title "packets received from higher layer, sum(packetBytes)"
scalar TARPNetwork.node[3].wlan[0].mac passedUpPk:count 1288
attr interpolationmode none
attr source packetSentToUpper
attr title "packets passed to higher layer, count"
scalar TARPNetwork.node[3].wlan[0].mac passedUpPk:sum(packetBytes) 97888
attr interpolationmode none
attr source packetSentToUpper
attr title "packets passed to higher layer, sum(packetBytes)"
scalar TARPNetwork.node[3].wlan[0].mac packetDropIncorrectlyReceived:count 0
attr interpolationmode none
attr source packetDropReasonIsIncorrectlyReceived(packetDropped)
attr title "packet drop: incorrectly received, count"
scalar TARPNetwork.node[3].wlan[0].mac packetDropIncorrectlyReceived:sum(packetBytes) 0
attr interpolationmode none
attr source packetDropReasonIsIncorrectlyReceived(packetDropped)
attr title "packet drop: incorrectly received, sum(packetBytes)"
scalar TARPNetwork.node[3].wlan[0].mac packetDropInterfaceDown:count 0
attr interpolationmode none
attr source packetDropReasonIsInterfaceDown(packetDropped)
attr title "packet drop: interface down, count"
scalar TARPNetwork.node[3].wlan[0].mac packetDropInterfaceDown:sum(packetBytes) 0
attr interpolationmode none
attr source packetDropReasonIsInterfaceDown(packetDropped)
attr title "packet drop: interface down, sum(packetBytes)"
scalar TARPNetwork.node[3].wlan[0].mac packetDropNotAddressedToUs:count 0
attr interpolationmode none
attr source packetDropReasonIsNotAddressedToUs(packetDropped)
attr title "packet drop: not addressed to us, count"
scalar TARPNetwork.node[3].wlan[0].mac packetDropNotAddressedToUs:sum(packetBytes) 0
attr interpolationmode none
attr source packetDropReasonIsNotAddressedToUs(packetDropped)
attr title "packet drop: not addressed to us, sum(packetBytes)"
scalar TARPNetwork.node[3].wlan[0].mac linkBroken:count 0
attr interpolationmode none
attr source linkBroken
attr title "link break, count"
statistic TARPNetwork.node[3].wlan[0].radio minSnir:histogram
field count 0
field mean nan
field stddev nan
field min nan
field max nan
field sum 0
field sqrsum 0
attr source minimumSnir(packetSentToUpper)
attr title "Min SNIR, histogram"
bin	-inf	0
bin	0	0
bin	1	0
statistic TARPNetwork.node[3].wlan[0].radio packetErrorRate:histogram
field count 1288
field mean 0.78571428571429
field stddev 0.41048528414325
field min 0
field max 1
field sum 1012
field sqrsum 1012
attr source packetErrorRate(packetSentToUpper)
attr title "Packet error rate, histogram"
bin	-inf	0
bin	0	276
bin	1	1012
bin	2	0
statistic TARPNetwork.node[3].wlan[0].radio bitErrorRate:histogram
field count 1288
field mean 0.78571428571429
field stddev 0.41048528414325
field min 0
field max 1
field sum 1012
field sqrsum 1012
attr source bitErrorRate(packetSentToUpper)
attr title "Bit error rate, histogram"
bin	-inf	0
bin	0	276
bin	1	1012
bin	2	0
statistic TARPNetwork.node[3].wlan[0].radio symbolErrorRate:histogram
field count 1288
field mean 0.78571428571429
field stddev 0.41048528414325
field min 0
field max 1
field sum 1012
field sqrsum 1012
attr source symbolErrorRate(packetSentToUpper)
attr title "Symbol error rate, histogram"
bin	-inf	0
bin	0	276
bin	1	1012
bin	2	0
scalar TARPNetwork.node[3].wlan[0].radio transmissionState:count 1003
attr interpolationmode sample-hold
attr source transmissionStateChanged
attr title "Radio transmission state, count"
scalar TARPNetwork.node[3].wlan[0].radio receptionState:count 3235
attr interpolationmode sample-hold
attr source receptionStateChanged
attr title "Radio reception state, count"
scalar TARPNetwork.node[3].wlan[0].radio radioMode:count 3
attr interpolationmode sample-hold
attr source radioModeChanged
attr title "Radio mode, count"
scalar TARPNetwork.node[3].generic.np nbDataPacketsReceived 0
scalar TARPNetwork.node[3].generic.np nbDataPacketsSent 0
scalar TARPNetwork.node[3].generic.np nbDataPacketsForwarded 501
scalar TARPNetwork.node[3].generic.np meanNbHops 0
scalar TARPNetwork.node[3].generic.np nbSPD 0
scalar TARPNetwork.node[3].udp packetReceived:count 0
attr interpolationmode none
attr source packetReceived
attr title "packets received, count"
scalar TARPNetwork.node[3].udp packetReceived:sum(packetBytes) 0
attr interpolationmode none
attr source packetReceived
attr title "packets received, sum(packetBytes)"
scalar TARPNetwork.node[3].udp packetSent:count 0
attr interpolationmode none
attr source packetSent
attr title "packets sent, count"
scalar TARPNetwork.node[3].udp packetSent:sum(packetBytes) 0
attr interpolationmode none
attr source packetSent
attr title "packets sent, sum(packetBytes)"
scalar TARPNetwork.node[3].udp passedUpPk:count 0
attr interpolationmode none
attr source packetSentToUpper
attr title "packets passed up, count"
scalar TARPNetwork.node[3].udp droppedPkWrongPort:count 0
attr interpolationmode none
attr source packetDropReasonIsNoPortFound(packetDropped)
attr title "packets dropped (wrong port), count"
scalar TARPNetwork.node[3].udp droppedPkBadChecksum:count 0
attr interpolationmode none
attr source packetDropReasonIsIncorrectlyReceived(packetDropped)
attr title "packets dropped (checksum error), count"
scalar TARPNetwork.node[4].lo[0].lo rcvdPkFromHl:count 0
attr interpolationmode none
attr source packetReceivedFromUpper
attr title "packets received from higher layer, count"
scalar TARPNetwork.node[4].lo[0].lo rcvdPkFromHl:sum(packetBytes) 0
attr interpolationmode none
attr source packetReceivedFromUpper
attr title "packets received from higher layer, sum(packetBytes)"
scalar TARPNetwork.node[4].lo[0].lo passedUpPk:count 0
attr interpolationmode none
attr source packetSentToUpper
attr title "packets passed to higher layer, count"
scalar TARPNetwork.node[4].lo[0].lo passedUpPk:sum(packetBytes) 0
attr interpolationmode none
attr source packetSentToUpper
attr title "packets passed to higher layer, sum(packetBytes)"
scalar TARPNetwork.node[4].wlan[0].mac.queue packetPopped:count 501
attr interpolationmode none
attr title "packet popped, count"
scalar TARPNetwork.node[4].wlan[0].mac.queue packetPopped:sum(packetBytes) 38076
attr interpolationmode none
attr title "packet popped, sum(packetBytes)"
statistic TARPNetwork.node[4].wlan[0].mac.queue queueingTime:histogram
field count 501
field mean 0
field stddev 0
field min 0
field max 0
field sum 0
field sqrsum 0
attr interpolationmode none
attr source queueingTime(packetPopped)
attr title "queueing times, histogram"
attr unit s
bin	-inf	0
bin	-0.5	0
bin	-0.48	0
bin	-0.46	0
bin	-0.44	0
bin	-0.42	0
bin	-0.4	0
bin	-0.38	0
bin	-0.36	0
bin	-0.34	0
bin	-0.32	0
bin	-0.3	0
bin	-0.28	0
bin	-0.26	0
bin	-0.24	0
bin	-0.22	0
bin	-0.2	0
bin	-0.18	0
bin	-0.16	0
bin	-0.14	0
bin	-0.12	0
bin	-0.1	0
bin	-0.08	0
bin	-0.06	0
bin	-0.04	0
bin	-0.02	0
bin	0	501
bin	0.02	0
bin	0.04	0
bin	0.06	0
bin	0.08	0
bin	0.1	0
bin	0.12	0
bin	0.14	0
bin	0.16	0
bin	0.18	0
bin	0.2	0
bin	0.22	0
bin	0.24	0
bin	0.26	0
bin	0.28	0
bin	0.3	0
bin	0.32	0
bin	0.34	0
bin	0.36	0
bin	0.38	0
bin	0.4	0
bin	0.42	0
bin	0.44	0
bin	0.46	0
bin	0.48	0
bin	0.5	0
scalar TARPNetwork.node[4].wlan[0].mac.queue queueLength:max 1
attr interpolationmode sample-hold
attr source "count(packetPushed) - count(packetPopped) - count(packetRemoved) - count(packetDropped)"
attr title "queue length, max"
scalar TARPNetwork.node[4].wlan[0].mac.queue queueLength:timeavg 0
attr interpolationmode sample-hold
attr source "count(packetPushed) - count(packetPopped) - count(packetRemoved) - count(packetDropped)"
attr title "queue length, timeavg"
scalar TARPNetwork.node[4].wlan[0].mac.queue packetPushed:count 501
attr interpolationmode none
attr title "packet pushed, count"
scalar TARPNetwork.node[4].wlan[0].mac.queue packetPushed:sum(packetBytes) 38076
attr interpolationmode none
attr title "packet pushed, sum(packetBytes)"
scalar TARPNetwork.node[4].wlan[0].mac.queue packetDropQueueOverflow:count 0
attr interpolationmode none
attr source packetDropReasonIsQueueOverflow(packetDropped)
attr title "packet drops: queue overflow, count"
scalar TARPNetwork.node[4].wlan[0].mac.queue packetDropQueueOverflow:sum(packetBytes) 0
attr interpolationmode none
attr source packetDropReasonIsQueueOverflow(packetDropped)
attr title "packet drops: queue overflow, sum(packetBytes)"
scalar TARPNetwork.node[4].wlan[0].mac.queue packetRemoved:count 0
attr interpolationmode none
attr title "packets removed, count"
scalar TARPNetwork.node[4].wlan[0].mac.queue packetRemoved:sum(packetBytes) 0
attr interpolationmode none
attr title "packets removed, sum(packetBytes)"
scalar TARPNetwork.node[4].wlan[0].mac rcvdPkFromLl:count 1402
attr interpolationmode none
attr source packetReceivedFromLower
attr title "packets received from lower layer, count"
scalar TARPNetwork.node[4].wlan[0].mac rcvdPkFromLl:sum(packetBytes) 128984
attr interpolationmode none
attr source packetReceivedFromLower
attr title "packets received from lower layer, sum(packetBytes)"
scalar TARPNetwork.node[4].wlan[0].mac sentDownPk:count 501
attr interpolationmode none
attr source packetSentToLower
attr title "packets sent to lower layer, count"
scalar TARPNetwork.node[4].wlan[0].mac sentDownPk:sum(packetBytes) 46092
attr interpolationmode none
attr source packetSentToLower
attr title "packets sent to lower layer, sum(packetBytes)"
scalar TARPNetwork.node[4].wlan[0].mac rcvdPkFromHl:count 501
attr interpolationmode none
attr source packetReceivedFromUpper
attr title "packets received from higher layer, count"
scalar TARPNetwork.node[4].wlan[0].mac rcvdPkFromHl:sum(packetBytes) 38076
attr interpolationmode none
attr source packetReceivedFromUpper
attr title "packets received from higher layer, sum(packetBytes)"
scalar TARPNetwork.node[4].wlan[0].mac passedUpPk:count 1402
attr interpolationmode none
attr source packetSentToUpper
attr title "packets passed to higher layer, count"
scalar TARPNetwork.node[4].wlan[0].mac passedUpPk:sum(packetBytes) 106552
attr interpolationmode none
attr source packetSentToUpper
attr title "packets passed to higher layer, sum(packetBytes)"
scalar TARPNetwork.node[4].wlan[0].mac packetDropIncorrectlyReceived:count 0
attr interpolationmode none
attr source packetDropReasonIsIncorrectlyReceived(packetDropped)
attr title "packet drop: incorrectly received, count"
scalar TARPNetwork.node[4].wlan[0].mac packetDropIncorrectlyReceived:sum(packetBytes) 0
attr interpolationmode none
attr source packetDropReasonIsIncorrectlyReceived(packetDropped)
attr title "packet drop: incorrectly received, sum(packetBytes)"
scalar TARPNetwork.node[4].wlan[0].mac packetDropInterfaceDown:count 0
attr interpolationmode none
attr source packetDropReasonIsInterfaceDown(packetDropped)
attr title "packet drop: interface down, count"
scalar TARPNetwork.node[4].wlan[0].mac packetDropInterfaceDown:sum(packetBytes) 0
attr interpolationmode none
attr source packetDropReasonIsInterfaceDown(packetDropped)
attr title "packet drop: interface down, sum(packetBytes)"
scalar TARPNetwork.node[4].wlan[0].mac packetDropNotAddressedToUs:count 0
attr interpolationmode none
attr source packetDropReasonIsNotAddressedToUs(packetDropped)
attr title "packet drop: not addressed to us, count"
scalar TARPNetwork.node[4].wlan[0].mac packetDropNotAddressedToUs:sum(packetBytes) 0
attr interpolationmode none
attr source packetDropReasonIsNotAddressedToUs(packetDropped)
attr title "packet drop: not addressed to us, sum(packetBytes)"
scalar TARPNetwork.node[4].wlan[0].mac linkBroken:count 0
attr interpolationmode none
attr source linkBroken
attr title "link break, count"
statistic TARPNetwork.node[4].wlan[0].radio minSnir:histogram
field count 0
field mean nan
field stddev nan
field min nan
field max nan
field sum 0
field sqrsum 0
attr source minimumSnir(packetSentToUpper)
attr title "Min SNIR, histogram"
bin	-inf	0
bin	0	0
bin	1	0
statistic TARPNetwork.node[4].wlan[0].radio packetErrorRate:histogram
field count 1402
field mean 0.85948644793153
field stddev 0.34764305847316
field min 0
field max 1
field sum 1205
field sqrsum 1205
attr source packetErrorRate(packetSentToUpper)
attr title "Packet error rate, histogram"
bin	-inf	0
bin	0	197
bin	1	1205
bin	2	0
statistic TARPNetwork.node[4].wlan[0].radio bitErrorRate:histogram
field count 1402
field mean 0.85948644793153
field stddev 0.34764305847316
field min 0
field max 1
field sum 1205
field sqrsum 1205
attr source bitErrorRate(packetSentToUpper)
attr title "Bit error rate, histogram"
bin	-inf	0
bin	0	197
bin	1	1205
bin	2	0
statistic TARPNetwork.node[4].wlan[0].radio symbolErrorRate:histogram
field count 1402
field mean 0.85948644793153
field stddev 0.34764305847316
field min 0
field max 1
field sum 1205
field sqrsum 1205
attr source symbolErrorRate(packetSentToUpper)
attr title "Symbol error rate, histogram"
bin	-inf	0
bin	0	197
bin	1	1205
bin	2	0
scalar TARPNetwork.node[4].wlan[0].radio transmissionState:count 1003
attr interpolationmode sample-hold
attr source transmissionStateChanged
attr title "Radio transmission state, count"
scalar TARPNetwork.node[4].wlan[0].radio receptionState:count 3638
attr interpolationmode sample-hold
attr source receptionStateChanged
attr title "Radio reception state, count"
scalar TARPNetwork.node[4].wlan[0].radio radioMode:count 3
attr interpolationmode sample-hold
attr source radioModeChanged
attr title "Radio mode, count"
scalar TARPNetwork.node[4].generic.np nbDataPacketsReceived 0
scalar TARPNetwork.node[4].generic.np nbDataPacketsSent 0
scalar TARPNetwork.node[4].generic.np nbDataPacketsForwarded 501
scalar TARPNetwork.node[4].generic.np meanNbHops 0
scalar TARPNetwork.node[4].generic.np nbSPD 0
scalar TARPNetwork.node[4].udp packetReceived:count 0
attr interpolationmode none
attr source packetReceived
attr title "packets received, count"
scalar TARPNetwork.node[4].udp packetReceived:sum(packetBytes) 0
attr interpolationmode none
attr source packetReceived
attr title "packets received, sum(packetBytes)"
scalar TARPNetwork.node[4].udp packetSent:count 0
attr interpolationmode none
attr source packetSent
attr title "packets sent, count"
scalar TARPNetwork.node[4].udp packetSent:sum(packetBytes) 0
attr interpolationmode none
attr source packetSent
attr title "packets sent, sum(packetBytes)"
scalar TARPNetwork.node[4].udp passedUpPk:count 0
attr interpolationmode none
attr source packetSentToUpper
attr title "packets passed up, count"
scalar TARPNetwork.node[4].udp droppedPkWrongPort:count 0
attr interpolationmode none
attr source packetDropReasonIsNoPortFound(packetDropped)
attr title "packets dropped (wrong port), count"
scalar TARPNetwork.node[4].udp droppedPkBadChecksum:count 0
attr interpolationmode none
attr source packetDropReasonIsIncorrectlyReceived(packetDropped)
attr title "packets dropped (checksum error), count"
scalar TARPNetwork.node[5].lo[0].lo rcvdPkFromHl:count 0
attr interpolationmode none
attr source packetReceivedFromUpper
attr title "packets received from higher layer, count"
scalar TARPNetwork.node[5].lo[0].lo rcvdPkFromHl:sum(packetBytes) 0
attr interpolationmode none
attr source packetReceivedFromUpper
attr title "packets received from higher layer, sum(packetBytes)"
scalar TARPNetwork.node[5].lo[0].lo passedUpPk:count 0
attr interpolationmode none
attr source packetSentToUpper
attr title "packets passed to higher layer, count"
scalar TARPNetwork.node[5].lo[0].lo passedUpPk:sum(packetBytes) 0
attr interpolationmode none
attr source packetSentToUpper
attr title "packets passed to higher layer, sum(packetBytes)"
scalar TARPNetwork.node[5].wlan[0].mac.queue packetPopped:count 501
attr interpolationmode none
attr title "packet popped, count"
scalar TARPNetwork.node[5].wlan[0].mac.queue packetPopped:sum(packetBytes) 38076
attr interpolationmode none
attr title "packet popped, sum(packetBytes)"
statistic TARPNetwork.node[5].wlan[0].mac.queue queueingTime:histogram
field count 501
field mean 0
field stddev 0
field min 0
field max 0
field sum 0
field sqrsum 0
attr interpolationmode none
attr source queueingTime(packetPopped)
attr title "queueing times, histogram"
attr unit s
bin	-inf	0
bin	-0.5	0
bin	-0.48	0
bin	-0.46	0
bin	-0.44	0
bin	-0.42	0
bin	-0.4	0
bin	-0.38	0
bin	-0.36	0
bin	-0.34	0
bin	-0.32	0
bin	-0.3	0
bin	-0.28	0
bin	-0.26	0
bin	-0.24	0
bin	-0.22	0
bin	-0.2	0
bin	-0.18	0
bin	-0.16	0
bin	-0.14	0
bin	-0.12	0
bin	-0.1	0
bin	-0.08	0
bin	-0.06	0
bin	-0.04	0
bin	-0.02	0
bin	0	501
bin	0.02	0
bin	0.04	0
bin	0.06	0
bin	0.08	0
bin	0.1	0
bin	0.12	0
bin	0.14	0
bin	0.16	0
bin	0.18	0
bin	0.2	0
bin	0.22	0
bin	0.24	0
bin	0.26	0
bin	0.28	0
bin	0.3	0
bin	0.32	0
bin	0.34	0
bin	0.36	0
bin	0.38	0
bin	0.4	0
bin	0.42	0
bin	0.44	0
bin	0.46	0
bin	0.48	0
bin	0.5	0
scalar TARPNetwork.node[5].wlan[0].mac.queue queueLength:max 1
attr interpolationmode sample-hold
attr source "count(packetPushed) - count(packetPopped) - count(packetRemoved) - count(packetDropped)"
attr title "queue length, max"
scalar TARPNetwork.node[5].wlan[0].mac.queue queueLength:timeavg 0
attr interpolationmode sample-hold
attr source "count(packetPushed) - count(packetPopped) - count(packetRemoved) - count(packetDropped)"
attr title "queue length, timeavg"
scalar TARPNetwork.node[5].wlan[0].mac.queue packetPushed:count 501
attr interpolationmode none
attr title "packet pushed, count"
scalar TARPNetwork.node[5].wlan[0].mac.queue packetPushed:sum(packetBytes) 38076
attr interpolationmode none
attr title "packet pushed, sum(packetBytes)"
scalar TARPNetwork.node[5].wlan[0].mac.queue packetDropQueueOverflow:count 0
attr interpolationmode none
attr source packetDropReasonIsQueueOverflow(packetDropped)
attr title "packet drops: queue overflow, count"
scalar TARPNetwork.node[5].wlan[0].mac.queue packetDropQueueOverflow:sum(packetBytes) 0
attr interpolationmode none
attr source packetDropReasonIsQueueOverflow(packetDropped)
attr title "packet drops: queue overflow, sum(packetBytes)"
scalar TARPNetwork.node[5].wlan[0].mac.queue packetRemoved:count 0
attr interpolationmode none
attr title "packets removed, count"
scalar TARPNetwork.node[5].wlan[0].mac.queue packetRemoved:sum(packetBytes) 0
attr interpolationmode none
attr title "packets removed, sum(packetBytes)"
scalar TARPNetwork.node[5].wlan[0].mac rcvdPkFromLl:count 1470
attr interpolationmode none
attr source packetReceivedFromLower
attr title "packets received from lower layer, count"
scalar TARPNetwork.node[5].wlan[0].mac rcvdPkFromLl:sum(packetBytes) 135240
attr interpolationmode none
attr source packetReceivedFromLower
attr title "packets received from lower layer, sum(packetBytes)"
scalar TARPNetwork.node[5].wlan[0].mac sentDownPk:count 501
attr interpolationmode none
attr source packetSentToLower
attr title "packets sent to lower layer, count"
scalar TARPNetwork.node[5].wlan[0].mac sentDownPk:sum(packetBytes) 46092
attr interpolationmode none
attr source packetSentToLower
attr title "packets sent to lower layer, sum(packetBytes)"
scalar TARPNetwork.node[5].wlan[0].mac rcvdPkFromHl:count 501
attr interpolationmode none
attr source packetReceivedFromUpper
attr title "packets received from higher layer, count"
scalar TARPNetwork.node[5].wlan[0].mac rcvdPkFromHl:sum(packetBytes) 38076
attr interpolationmode none
attr source packetReceivedFromUpper
attr title "packets received from higher layer, sum(packetBytes)"
scalar TARPNetwork.node[5].wlan[0].mac passedUpPk:count 1470
attr interpolationmode none
attr source packetSentToUpper
attr title "packets passed to higher layer, count"
scalar TARPNetwork.node[5].wlan[0].mac passedUpPk:sum(packetBytes) 111720
attr interpolationmode none
attr source packetSentToUpper
attr title "packets passed to higher layer, sum(packetBytes)"
scalar TARPNetwork.node[5].wlan[0].mac packetDropIncorrectlyReceived:count 0
attr interpolationmode none
attr source packetDropReasonIsIncorrectlyReceived(packetDropped)
attr title "packet drop: incorrectly received, count"
scalar TARPNetwork.node[5].wlan[0].mac packetDropIncorrectlyReceived:sum(packetBytes) 0
attr interpolationmode none
attr source packetDropReasonIsIncorrectlyReceived(packetDropped)
attr title "packet drop: incorrectly received, sum(packetBytes)"
scalar TARPNetwork.node[5].wlan[0].mac packetDropInterfaceDown:count 0
attr interpolationmode none
attr source packetDropReasonIsInterfaceDown(packetDropped)
attr title "packet drop: interface down, count"
scalar TARPNetwork.node[5].wlan[0].mac packetDropInterfaceDown:sum(packetBytes) 0
attr interpolationmode none
attr source packetDropReasonIsInterfaceDown(packetDropped)
attr title "packet drop: interface down, sum(packetBytes)"
scalar TARPNetwork.node[5].wlan[0].mac packetDropNotAddressedToUs:count 0
attr interpolationmode none
attr source packetDropReasonIsNotAddressedToUs(packetDropped)
attr title "packet drop: not addressed to us, count"
scalar TARPNetwork.node[5].wlan[0].mac packetDropNotAddressedToUs:sum(packetBytes) 0
attr interpolationmode none
attr source packetDropReasonIsNotAddressedToUs(packetDropped)
attr title "packet drop: not addressed to us, sum(packetBytes)"
scalar TARPNetwork.node[5].wlan[0].mac linkBroken:count 0
attr interpolationmode none
attr source linkBroken
attr title "link break, count"
statistic TARPNetwork.node[5].wlan[0].radio minSnir:histogram
field count 0
field mean nan
field stddev nan
field min nan
field max nan
field sum 0
field sqrsum 0
attr source minimumSnir(packetSentToUpper)
attr title "Min SNIR, histogram"
bin	-inf	0
bin	0	0
bin	1	0
statistic TARPNetwork.node[5].wlan[0].radio packetErrorRate:histogram
field count 1470
field mean 0.85578231292517
field stddev 0.35142988124182
field min 0
field max 1
field sum 1258
field sqrsum 1258
attr source packetErrorRate(packetSentToUpper)
attr title "Packet error rate, histogram"
bin	-inf	0
bin	0	212
bin	1	1258
bin	2	0
statistic TARPNetwork.node[5].wlan[0].radio bitErrorRate:histogram
field count 1470
field mean 0.85578231292517
field stddev 0.35142988124182
field min 0
field max 1
field sum 1258
field sqrsum 1258
attr source bitErrorRate(packetSentToUpper)
attr title "Bit error rate, histogram"
bin	-inf	0
bin	0	212
bin	1	1258
bin	2	0
statistic TARPNetwork.node[5].wlan[0].radio symbolErrorRate:histogram
field count 1470
field mean 0.85578231292517
field stddev 0.35142988124182
field min 0
field max 1
field sum 1258
field sqrsum 1258
attr source symbolErrorRate(packetSentToUpper)
attr title "Symbol error rate, histogram"
bin	-inf	0
bin	0	212
bin	1	1258
bin	2	0
scalar TARPNetwork.node[5].wlan[0].radio transmissionState:count 1003
attr interpolationmode sample-hold
attr source transmissionStateChanged
attr title "Radio transmission state, count"
scalar TARPNetwork.node[5].wlan[0].radio receptionState:count 3756
attr interpolationmode sample-hold
attr source receptionStateChanged
attr title "Radio reception state, count"
scalar TARPNetwork.node[5].wlan[0].radio radioMode:count 3
attr interpolationmode sample-hold
attr source radioModeChanged
attr title "Radio mode, count"
scalar TARPNetwork.node[5].generic.np nbDataPacketsReceived 0
scalar TARPNetwork.node[5].generic.np nbDataPacketsSent 0
scalar TARPNetwork.node[5].generic.np nbDataPacketsForwarded 501
scalar TARPNetwork.node[5].generic.np meanNbHops 0
scalar TARPNetwork.node[5].generic.np nbSPD 0
scalar TARPNetwork.node[5].udp packetReceived:count 0
attr interpolationmode none
attr source packetReceived
attr title "packets received, count"
scalar TARPNetwork.node[5].udp packetReceived:sum(packetBytes) 0
attr interpolationmode none
attr source packetReceived
attr title "packets received, sum(packetBytes)"
scalar TARPNetwork.node[5].udp packetSent:count 0
attr interpolationmode none
attr source packetSent
attr title "packets sent, count"
scalar TARPNetwork.node[5].udp packetSent:sum(packetBytes) 0
attr interpolationmode none
attr source packetSent
attr title "packets sent, sum(packetBytes)"
scalar TARPNetwork.node[5].udp passedUpPk:count 0
attr interpolationmode none
attr source packetSentToUpper
attr title "packets passed up, count"
scalar TARPNetwork.node[5].udp droppedPkWrongPort:count 0
attr interpolationmode none
attr source packetDropReasonIsNoPortFound(packetDropped)
attr title "packets dropped (wrong port), count"
scalar TARPNetwork.node[5].udp droppedPkBadChecksum:count 0
attr interpolationmode none
attr source packetDropReasonIsIncorrectlyReceived(packetDropped)
attr title "packets dropped (checksum error), count"
scalar TARPNetwork.node[6].lo[0].lo rcvdPkFromHl:count 0
attr interpolationmode none
attr source packetReceivedFromUpper
attr title "packets received from higher layer, count"
scalar TARPNetwork.node[6].lo[0].lo rcvdPkFromHl:sum(packetBytes) 0
attr interpolationmode none
attr source packetReceivedFromUpper
attr title "packets received from higher layer, sum(packetBytes)"
scalar TARPNetwork.node[6].lo[0].lo passedUpPk:count 0
attr interpolationmode none
attr source packetSentToUpper
attr title "packets passed to higher layer, count"
scalar TARPNetwork.node[6].lo[0].lo passedUpPk:sum(packetBytes) 0
attr interpolationmode none
attr source packetSentToUpper
attr title "packets passed to higher layer, sum(packetBytes)"
scalar TARPNetwork.node[6].wlan[0].mac.queue packetPopped:count 501
attr interpolationmode none
attr title "packet popped, count"
scalar TARPNetwork.node[6].wlan[0].mac.queue packetPopped:sum(packetBytes) 38076
attr interpolationmode none
attr title "packet popped, sum(packetBytes)"
statistic TARPNetwork.node[6].wlan[0].mac.queue queueingTime:histogram
field count 501
field mean 0
field stddev 0
field min 0
field max 0
field sum 0
field sqrsum 0
attr interpolationmode none
attr source queueingTime(packetPopped)
attr title "queueing times, histogram"
attr unit s
bin	-inf	0
bin	-0.5	0
bin	-0.48	0
bin	-0.46	0
bin	-0.44	0
bin	-0.42	0
bin	-0.4	0
bin	-0.38	0
bin	-0.36	0
bin	-0.34	0
bin	-0.32	0
bin	-0.3	0
bin	-0.28	0
bin	-0.26	0
bin	-0.24	0
bin	-0.22	0
bin	-0.2	0
bin	-0.18	0
bin	-0.16	0
bin	-0.14	0
bin	-0.12	0
bin	-0.1	0
bin	-0.08	0
bin	-0.06	0
bin	-0.04	0
bin	-0.02	0
bin	0	501
bin	0.02	0
bin	0.04	0
bin	0.06	0
bin	0.08	0
bin	0.1	0
bin	0.12	0
bin	0.14	0
bin	0.16	0
bin	0.18	0
bin	0.2	0
bin	0.22	0
bin	0.24	0
bin	0.26	0
bin	0.28	0
bin	0.3	0
bin	0.32	0
bin	0.34	0
bin	0.36	0
bin	0.38	0
bin	0.4	0
bin	0.42	0
bin	0.44	0
bin	0.46	0
bin	0.48	0
bin	0.5	0
scalar TARPNetwork.node[6].wlan[0].mac.queue queueLength:max 1
attr interpolationmode sample-hold
attr source "count(packetPushed) - count(packetPopped) - count(packetRemoved) - count(packetDropped)"
attr title "queue length, max"
scalar TARPNetwork.node[6].wlan[0].mac.queue queueLength:timeavg 0
attr interpolationmode sample-hold
attr source "count(packetPushed) - count(packetPopped) - count(packetRemoved) - count(packetDropped)"
attr title "queue length, timeavg"
scalar TARPNetwork.node[6].wlan[0].mac.queue packetPushed:count 501
attr interpolationmode none
attr title "packet pushed, count"
scalar TARPNetwork.node[6].wlan[0].mac.queue packetPushed:sum(packetBytes) 38076
attr interpolationmode none
attr title "packet pushed, sum(packetBytes)"
scalar TARPNetwork.node[6].wlan[0].mac.queue packetDropQueueOverflow:count 0
attr interpolationmode none
attr source packetDropReasonIsQueueOverflow(packetDropped)
attr title "packet drops: queue overflow, count"
scalar TARPNetwork.node[6].wlan[0].mac.queue packetDropQueueOverflow:sum(packetBytes) 0
attr interpolationmode none
attr source packetDropReasonIsQueueOverflow(packetDropped)
attr title "packet drops: queue overflow, sum(packetBytes)"
scalar TARPNetwork.node[6].wlan[0].mac.queue packetRemoved:count 0
attr interpolationmode none
attr title "packets removed, count"
scalar TARPNetwork.node[6].wlan[0].mac.queue packetRemoved:sum(packetBytes) 0
attr interpolationmode none
attr title "packets removed, sum(packetBytes)"
scalar TARPNetwork.node[6].wlan[0].mac rcvdPkFromLl:count 1301
attr interpolationmode none
attr source packetReceivedFromLower
attr title "packets received from lower layer, count"
scalar TARPNetwork.node[6].wlan[0].mac rcvdPkFromLl:sum(packetBytes) 119692
attr interpolationmode none
attr source packetReceivedFromLower
attr title "packets received from lower layer, sum(packetBytes)"
scalar TARPNetwork.node[6].wlan[0].mac sentDownPk:count 501
attr interpolationmode none
attr source packetSentToLower
attr title "packets sent to lower layer, count"
scalar TARPNetwork.node[6].wlan[0].mac sentDownPk:sum(packetBytes) 46092
attr interpolationmode none
attr source packetSentToLower
attr title "packets sent to lower layer, sum(packetBytes)"
scalar TARPNetwork.node[6].wlan[0].mac rcvdPkFromHl:count 501
attr interpolationmode none
attr source packetReceivedFromUpper
attr title "packets received from higher layer, count"
scalar TARPNetwork.node[6].wlan[0].mac rcvdPkFromHl:sum(packetBytes) 38076
attr interpolationmode none
attr source packetReceivedFromUpper
attr title "packets received from higher layer, sum(packetBytes)"
scalar TARPNetwork.node[6].wlan[0].mac passedUpPk:count 1301
attr interpolationmode none
attr source packetSentToUpper
attr title "packets passed to higher layer, count"
scalar TARPNetwork.node[6].wlan[0].mac passedUpPk:sum(packetBytes) 98876
attr interpolationmode none
attr source packetSentToUpper
attr title "packets passed to higher layer, sum(packetBytes)"
scalar TARPNetwork.node[6].wlan[0].mac packetDropIncorrectlyReceived:count 0
attr interpolationmode none
attr source packetDropReasonIsIncorrectlyReceived(packetDropped)
attr title "packet drop: incorrectly received, count"
scalar TARPNetwork.node[6].wlan[0].mac packetDropIncorrectlyReceived:sum(packetBytes) 0
attr interpolationmode none
attr source packetDropReasonIsIncorrectlyReceived(packetDropped)
attr title "packet drop: incorrectly received, sum(packetBytes)"
scalar TARPNetwork.node[6].wlan[0].mac packetDropInterfaceDown:count 0
attr interpolationmode none
attr source packetDropReasonIsInterfaceDown(packetDropped)
attr title "packet drop: interface down, count"
scalar TARPNetwork.node[6].wlan[0].mac packetDropInterfaceDown:sum(packetBytes) 0
attr interpolationmode none
attr source packetDropReasonIsInterfaceDown(packetDropped)
attr title "packet drop: interface down, sum(packetBytes)"
scalar TARPNetwork.node[6].wlan[0].mac packetDropNotAddressedToUs:count 0
attr interpolationmode none
attr source packetDropReasonIsNotAddressedToUs(packetDropped)
attr title "packet drop: not addressed to us, count"
scalar TARPNetwork.node[6].wlan[0].mac packetDropNotAddressedToUs:sum(packetBytes) 0
attr interpolationmode none
attr source packetDropReasonIsNotAddressedToUs(packetDropped)
attr title "packet drop: not addressed to us, sum(packetBytes)"
scalar TARPNetwork.node[6].wlan[0].mac linkBroken:count 0
attr interpolationmode none
attr source linkBroken
attr title "link break, count"
statistic TARPNetwork.node[6].wlan[0].radio minSnir:histogram
field count 0
field mean nan
field stddev nan
field min nan
field max nan
field sum 0
field sqrsum 0
attr source minimumSnir(packetSentToUpper)
attr title "Min SNIR, histogram"
bin	-inf	0
bin	0	0
bin	1	0
statistic TARPNetwork.node[6].wlan[0].radio packetErrorRate:histogram
field count 1301
field mean 0.87086856264412
field stddev 0.33547431235401
field min 0
field max 1
field sum 1133
field sqrsum 1133
attr source packetErrorRate(packetSentToUpper)
attr title "Packet error rate, histogram"
bin	-inf	0
bin	0	168
bin	1	1133
bin	2	0
statistic TARPNetwork.node[6].wlan[0].radio bitErrorRate:histogram
field count 1301
field mean 0.87086856264412
field stddev 0.33547431235401
field min 0
field max 1
field sum 1133
field sqrsum 1133
attr source bitErrorRate(packetSentToUpper)
attr title "Bit error rate, histogram"
bin	-inf	0
bin	0	168
bin	1	1133
bin	2	0
statistic TARPNetwork.node[6].wlan[0].radio symbolErrorRate:histogram
field count 1301
field mean 0.87086856264412
field stddev 0.33547431235401
field min 0
field max 1
field sum 1133
field sqrsum 1133
attr source symbolErrorRate(packetSentToUpper)
attr title "Symbol error rate, histogram"
bin	-inf	0
bin	0	168
bin	1	1133
bin	2	0
scalar TARPNetwork.node[6].wlan[0].radio transmissionState:count 1003
attr interpolationmode sample-hold
attr source transmissionStateChanged
attr title "Radio transmission state, count"
scalar TARPNetwork.node[6].wlan[0].radio receptionState:count 3379
attr interpolationmode sample-hold
attr source receptionStateChanged
attr title "Radio reception state, count"
scalar TARPNetwork.node[6].wlan[0].radio radioMode:count 3
attr interpolationmode sample-hold
attr source radioModeChanged
attr title "Radio mode, count"
scalar TARPNetwork.node[6].generic.np nbDataPacketsReceived 0
scalar TARPNetwork.node[6].generic.np nbDataPacketsSent 0
scalar TARPNetwork.node[6].generic.np nbDataPacketsForwarded 501
scalar TARPNetwork.node[6].generic.np meanNbHops 0
scalar TARPNetwork.node[6].generic.np nbSPD 0
scalar TARPNetwork.node[6].udp packetReceived:count 0
attr interpolationmode none
attr source packetReceived
attr title "packets received, count"
scalar TARPNetwork.node[6].udp packetReceived:sum(packetBytes) 0
attr interpolationmode none
attr source packetReceived
attr title "packets received, sum(packetBytes)"
scalar TARPNetwork.node[6].udp packetSent:count 0
attr interpolationmode none
attr source packetSent
attr title "packets sent, count"
scalar TARPNetwork.node[6].udp packetSent:sum(packetBytes) 0
attr interpolationmode none
attr source packetSent
attr title "packets sent, sum(packetBytes)"
scalar TARPNetwork.node[6].udp passedUpPk:count 0
attr interpolationmode none
attr source packetSentToUpper
attr title "packets passed up, count"
scalar TARPNetwork.node[6].udp droppedPkWrongPort:count 0
attr interpolationmode none
attr source packetDropReasonIsNoPortFound(packetDropped)
attr title "packets dropped (wrong port), count"
scalar TARPNetwork.node[6].udp droppedPkBadChecksum:count 0
attr interpolationmode none
attr source packetDropReasonIsIncorrectlyReceived(packetDropped)
attr title "packets dropped (checksum error), count"
scalar TARPNetwork.node[7].lo[0].lo rcvdPkFromHl:count 0
attr interpolationmode none
attr source packetReceivedFromUpper
attr title "packets received from higher layer, count"
scalar TARPNetwork.node[7].lo[0].lo rcvdPkFromHl:sum(packetBytes) 0
attr interpolationmode none
attr source packetReceivedFromUpper
attr title "packets received from higher layer, sum(packetBytes)"
scalar TARPNetwork.node[7].lo[0].lo passedUpPk:count 0
attr interpolationmode none
attr source packetSentToUpper
attr title "packets passed to higher layer, count"
scalar TARPNetwork.node[7].lo[0].lo passedUpPk:sum(packetBytes) 0
attr interpolationmode none
attr source packetSentToUpper
attr title "packets passed to higher layer, sum(packetBytes)"
scalar TARPNetwork.node[7].wlan[0].mac.queue packetPopped:count 501
attr interpolationmode none
attr title "packet popped, count"
scalar TARPNetwork.node[7].wlan[0].mac.queue packetPopped:sum(packetBytes) 38076
attr interpolationmode none
attr title "packet popped, sum(packetBytes)"
statistic TARPNetwork.node[7].wlan[0].mac.queue queueingTime:histogram
field count 501
field mean 0
field stddev 0
field min 0
field max 0
field sum 0
field sqrsum 0
attr interpolationmode none
attr source queueingTime(packetPopped)
attr title "queueing times, histogram"
attr unit s
bin	-inf	0
bin	-0.5	0
bin	-0.48	0
bin	-0.46	0
bin	-0.44	0
bin	-0.42	0
bin	-0.4	0
bin	-0.38	0
bin	-0.36	0
bin	-0.34	0
bin	-0.32	0
bin	-0.3	0
bin	-0.28	0
bin	-0.26	0
bin	-0.24	0
bin	-0.22	0
bin	-0.2	0
bin	-0.18	0
bin	-0.16	0
bin	-0.14	0
bin	-0.12	0
bin	-0.1	0
bin	-0.08	0
bin	-0.06	0
bin	-0.04	0
bin	-0.02	0
bin	0	501
bin	0.02	0
bin	0.04	0
bin	0.06	0
bin	0.08	0
bin	0.1	0
bin	0.12	0
bin	0.14	0
bin	0.16	0
bin	0.18	0
bin	0.2	0
bin	0.22	0
bin	0.24	0
bin	0.26	0
bin	0.28	0
bin	0.3	0
bin	0.32	0
bin	0.34	0
bin	0.36	0
bin	0.38	0
bin	0.4	0
bin	0.42	0
bin	0.44	0
bin	0.46	0
bin	0.48	0
bin	0.5	0
scalar TARPNetwork.node[7].wlan[0].mac.queue queueLength:max 1
attr interpolationmode sample-hold
attr source "count(packetPushed) - count(packetPopped) - count(packetRemoved) - count(packetDropped)"
attr title "queue length, max"
scalar TARPNetwork.node[7].wlan[0].mac.queue queueLength:timeavg 0
attr interpolationmode sample-hold
attr source "count(packetPushed) - count(packetPopped) - count(packetRemoved) - count(packetDropped)"
attr title "queue length, timeavg"
scalar TARPNetwork.node[7].wlan[0].mac.queue packetPushed:count 501
attr interpolationmode none
attr title "packet pushed, count"
scalar TARPNetwork.node[7].wlan[0].mac.queue packetPushed:sum(packetBytes) 38076
attr interpolationmode none
attr title "packet pushed, sum(packetBytes)"
scalar TARPNetwork.node[7].wlan[0].mac.queue packetDropQueueOverflow:count 0
attr interpolationmode none
attr source packetDropReasonIsQueueOverflow(packetDropped)
attr title "packet drops: queue overflow, count"
scalar TARPNetwork.node[7].wlan[0].mac.queue packetDropQueueOverflow:sum(packetBytes) 0
attr interpolationmode none
attr source packetDropReasonIsQueueOverflow(packetDropped)
attr title "packet drops: queue overflow, sum(packetBytes)"
scalar TARPNetwork.node[7].wlan[0].mac.queue packetRemoved:count 0
attr interpolationmode none
attr title "packets removed, count"
scalar TARPNetwork.node[7].wlan[0].mac.queue packetRemoved:sum(packetBytes) 0
attr interpolationmode none
attr title "packets removed, sum(packetBytes)"
scalar TARPNetwork.node[7].wlan[0].mac rcvdPkFromLl:count 1355
attr interpolationmode none
attr source packetReceivedFromLower
attr title "packets received from lower layer, count"
scalar TARPNetwork.node[7].wlan[0].mac rcvdPkFromLl:sum(packetBytes) 124660
attr interpolationmode none
attr source packetReceivedFromLower
attr title "packets received from lower layer, sum(packetBytes)"
scalar TARPNetwork.node[7].wlan[0].mac sentDownPk:count 501
attr interpolationmode none
attr source packetSentToLower
attr title "packets sent to lower layer, count"
scalar TARPNetwork.node[7].wlan[0].mac sentDownPk:sum(packetBytes) 46092
attr interpolationmode none
attr source packetSentToLower
attr title "packets sent to lower layer, sum(packetBytes)"
scalar TARPNetwork.node[7].wlan[0].mac rcvdPkFromHl:count 501
attr interpolationmode none
attr source packetReceivedFromUpper
attr title "packets received from higher layer, count"
scalar TARPNetwork.node[7].wlan[0].mac rcvdPkFromHl:sum(packetBytes) 38076
attr interpolationmode none
attr source packetReceivedFromUpper
attr title "packets received from higher layer, sum(packetBytes)"
scalar TARPNetwork.node[7].wlan[0].mac passedUpPk:count 1355
attr interpolationmode none
attr source packetSentToUpper
attr title "packets passed to higher layer, count"
scalar TARPNetwork.node[7].wlan[0].mac passedUpPk:sum(packetBytes) 102980
attr interpolationmode none
attr source packetSentToUpper
attr title "packets passed to higher layer, sum(packetBytes)"
scalar TARPNetwork.node[7].wlan[0].mac packetDropIncorrectlyReceived:count 0
attr interpolationmode none
attr source packetDropReasonIsIncorrectlyReceived(packetDropped)
attr title "packet drop: incorrectly received, count"
scalar TARPNetwork.node[7].wlan[0].mac packetDropIncorrectlyReceived:sum(packetBytes) 0
attr interpolationmode none
attr source packetDropReasonIsIncorrectlyReceived(packetDropped)
attr title "packet drop: incorrectly received, sum(packetBytes)"
scalar TARPNetwork.node[7].wlan[0].mac packetDropInterfaceDown:count 0
attr interpolationmode none
attr source packetDropReasonIsInterfaceDown(packetDropped)
attr title "packet drop: interface down, count"
scalar TARPNetwork.node[7].wlan[0].mac packetDropInterfaceDown:sum(packetBytes) 0
attr interpolationmode none
attr source packetDropReasonIsInterfaceDown(packetDropped)
attr title "packet drop: interface down, sum(packetBytes)"
scalar TARPNetwork.node[7].wlan[0].mac packetDropNotAddressedToUs:count 0
attr interpolationmode none
attr source packetDropReasonIsNotAddressedToUs(packetDropped)
attr title "packet drop: not addressed to us, count"
scalar TARPNetwork.node[7].wlan[0].mac packetDropNotAddressedToUs:sum(packetBytes) 0
attr interpolationmode none
attr source packetDropReasonIsNotAddressedToUs(packetDropped)
attr title "packet drop: not addressed to us, sum(packetBytes)"
scalar TARPNetwork.node[7].wlan[0].mac linkBroken:count 0
attr interpolationmode none
attr source linkBroken
attr title "link break, count"
statistic TARPNetwork.node[7].wlan[0].radio minSnir:histogram
field count 0
field mean nan
field stddev nan
field min nan
field max nan
field sum 0
field sqrsum 0
attr source minimumSnir(packetSentToUpper)
attr title "Min SNIR, histogram"
bin	-inf	0
bin	0	0
bin	1	0
statistic TARPNetwork.node[7].wlan[0].radio packetErrorRate:histogram
field count 1355
field mean 0.8309963099631
field stddev 0.37489353976919
field min 0
field max 1
field sum 1126
field sqrsum 1126
attr source packetErrorRate(packetSentToUpper)
attr title "Packet error rate, histogram"
bin	-inf	0
bin	0	229
bin	1	1126
bin	2	0
statistic TARPNetwork.node[7].wlan[0].radio bitErrorRate:histogram
field count 1355
field mean 0.8309963099631
field stddev 0.37489353976919
field min 0
field max 1
field sum 1126
field sqrsum 1126
attr source bitErrorRate(packetSentToUpper)
attr title "Bit error rate, histogram"
bin	-inf	0
bin	0	229
bin	1	1126
bin	2	0
statistic TARPNetwork.node[7].wlan[0].radio symbolErrorRate:histogram
field count 1355
field mean 0.8309963099631
field stddev 0.37489353976919
field min 0
field max 1
field sum 1126
field sqrsum 1126
attr source symbolErrorRate(packetSentToUpper)
attr title "Symbol error rate, histogram"
bin	-inf	0
bin	0	229
bin	1	1126
bin	2	0
scalar TARPNetwork.node[7].wlan[0].radio transmissionState:count 1003
attr interpolationmode sample-hold
attr source transmissionStateChanged
attr title "Radio transmission state, count"
scalar TARPNetwork.node[7].wlan[0].radio receptionState:count 3466
attr interpolationmode sample-hold
attr source receptionStateChanged
attr title "Radio reception state, count"
scalar TARPNetwork.node[7].wlan[0].radio radioMode:count 3
attr interpolationmode sample-hold
attr source radioModeChanged
attr title "Radio mode, count"
scalar TARPNetwork.node[7].generic.np nbDataPacketsReceived 0
scalar TARPNetwork.node[7].generic.np nbDataPacketsSent 0
scalar TARPNetwork.node[7].generic.np nbDataPacketsForwarded 501
scalar TARPNetwork.node[7].generic.np meanNbHops 0
scalar TARPNetwork.node[7].generic.np nbSPD 0
scalar TARPNetwork.node[7].udp packetReceived:count 0
attr interpolationmode none
attr source packetReceived
attr title "packets received, count"
scalar TARPNetwork.node[7].udp packetReceived:sum(packetBytes) 0
attr interpolationmode none
attr source packetReceived
attr title "packets received, sum(packetBytes)"
scalar TARPNetwork.node[7].udp packetSent:count 0
attr interpolationmode none
attr source packetSent
attr title "packets sent, count"
scalar TARPNetwork.node[7].udp packetSent:sum(packetBytes) 0
attr interpolationmode none
attr source packetSent
attr title "packets sent, sum(packetBytes)"
scalar TARPNetwork.node[7].udp passedUpPk:count 0
attr interpolationmode none
attr source packetSentToUpper
attr title "packets passed up, count"
scalar TARPNetwork.node[7].udp droppedPkWrongPort:count 0
attr interpolationmode none
attr source packetDropReasonIsNoPortFound(packetDropped)
attr title "packets dropped (wrong port), count"
scalar TARPNetwork.node[7].udp droppedPkBadChecksum:count 0
attr interpolationmode none
attr source packetDropReasonIsIncorrectlyReceived(packetDropped)
attr title "packets dropped (checksum error), count"
scalar TARPNetwork.node[8].lo[0].lo rcvdPkFromHl:count 0
attr interpolationmode none
attr source packetReceivedFromUpper
attr title "packets received from higher layer, count"
scalar TARPNetwork.node[8].lo[0].lo rcvdPkFromHl:sum(packetBytes) 0
attr interpolationmode none
[...]
attr title "packet popped, sum(packetBytes)"
statistic TARPNetwork.nodeA.wlan[0].mac.queue queueingTime:histogram
field count 300
field mean 0
field stddev 0
field min 0
field max 0
field sum 0
field sqrsum 0
attr interpolationmode none
attr source queueingTime(packetPopped)
attr title "queueing times, histogram"
attr unit s
bin	-inf	0
bin	-0.5	0
bin	-0.48	0
bin	-0.46	0
bin	-0.44	0
bin	-0.42	0
bin	-0.4	0
bin	-0.38	0
bin	-0.36	0
bin	-0.34	0
bin	-0.32	0
bin	-0.3	0
bin	-0.28	0
bin	-0.26	0
bin	-0.24	0
bin	-0.22	0
bin	-0.2	0
bin	-0.18	0
bin	-0.16	0
bin	-0.14	0
bin	-0.12	0
bin	-0.1	0
bin	-0.08	0
bin	-0.06	0
bin	-0.04	0
bin	-0.02	0
bin	0	300
bin	0.02	0
bin	0.04	0
bin	0.06	0
bin	0.08	0
bin	0.1	0
bin	0.12	0
bin	0.14	0
bin	0.16	0
bin	0.18	0
bin	0.2	0
bin	0.22	0
bin	0.24	0
bin	0.26	0
bin	0.28	0
bin	0.3	0
bin	0.32	0
bin	0.34	0
bin	0.36	0
bin	0.38	0
bin	0.4	0
bin	0.42	0
bin	0.44	0
bin	0.46	0
bin	0.48	0
bin	0.5	0
scalar TARPNetwork.nodeA.wlan[0].mac.queue queueLength:max 1
attr interpolationmode sample-hold
attr source "count(packetPushed) - count(packetPopped) - count(packetRemoved) - count(packetDropped)"
attr title "queue length, max"
scalar TARPNetwork.nodeA.wlan[0].mac.queue queueLength:timeavg 0
attr interpolationmode sample-hold
attr source "count(packetPushed) - count(packetPopped) - count(packetRemoved) - count(packetDropped)"
attr title "queue length, timeavg"
scalar TARPNetwork.nodeA.wlan[0].mac.queue packetPushed:count 300
attr interpolationmode none
attr title "packet pushed, count"
scalar TARPNetwork.nodeA.wlan[0].mac.queue packetPushed:sum(packetBytes) 22800
attr interpolationmode none
attr title "packet pushed, sum(packetBytes)"
scalar TARPNetwork.nodeA.wlan[0].mac.queue packetDropQueueOverflow:count 0
attr interpolationmode none
attr source packetDropReasonIsQueueOverflow(packetDropped)
attr title "packet drops: queue overflow, count"
scalar TARPNetwork.nodeA.wlan[0].mac.queue packetDropQueueOverflow:sum(packetBytes) 0
attr interpolationmode none
attr source packetDropReasonIsQueueOverflow(packetDropped)
attr title "packet drops: queue overflow, sum(packetBytes)"
scalar TARPNetwork.nodeA.wlan[0].mac.queue packetRemoved:count 0
attr interpolationmode none
attr title "packets removed, count"
scalar TARPNetwork.nodeA.wlan[0].mac.queue packetRemoved:sum(packetBytes) 0
attr interpolationmode none
attr title "packets removed, sum(packetBytes)"
scalar TARPNetwork.nodeA.wlan[0].mac rcvdPkFromLl:count 817
attr interpolationmode none
attr source packetReceivedFromLower
attr title "packets received from lower layer, count"
scalar TARPNetwork.nodeA.wlan[0].mac rcvdPkFromLl:sum(packetBytes) 75164
attr interpolationmode none
attr source packetReceivedFromLower
attr title "packets received from lower layer, sum(packetBytes)"
scalar TARPNetwork.nodeA.wlan[0].mac sentDownPk:count 300
attr interpolationmode none
attr source packetSentToLower
attr title "packets sent to lower layer, count"
scalar TARPNetwork.nodeA.wlan[0].mac sentDownPk:sum(packetBytes) 27600
attr interpolationmode none
attr source packetSentToLower
attr title "packets sent to lower layer, sum(packetBytes)"
scalar TARPNetwork.nodeA.wlan[0].mac rcvdPkFromHl:count 300
attr interpolationmode none
attr source packetReceivedFromUpper
attr title "packets received from higher layer, count"
scalar TARPNetwork.nodeA.wlan[0].mac rcvdPkFromHl:sum(packetBytes) 22800
attr interpolationmode none
attr source packetReceivedFromUpper
attr title "packets received from higher layer, sum(packetBytes)"
scalar TARPNetwork.nodeA.wlan[0].mac passedUpPk:count 817
attr interpolationmode none
attr source packetSentToUpper
attr title "packets passed to higher layer, count"
scalar TARPNetwork.nodeA.wlan[0].mac passedUpPk:sum(packetBytes) 62092
attr interpolationmode none
attr source packetSentToUpper
attr title "packets passed to higher layer, sum(packetBytes)"
scalar TARPNetwork.nodeA.wlan[0].mac packetDropIncorrectlyReceived:count 0
attr interpolationmode none
attr source packetDropReasonIsIncorrectlyReceived(packetDropped)
attr title "packet drop: incorrectly received, count"
scalar TARPNetwork.nodeA.wlan[0].mac packetDropIncorrectlyReceived:sum(packetBytes) 0
attr interpolationmode none
attr source packetDropReasonIsIncorrectlyReceived(packetDropped)
attr title "packet drop: incorrectly received, sum(packetBytes)"
scalar TARPNetwork.nodeA.wlan[0].mac packetDropInterfaceDown:count 0
attr interpolationmode none
attr source packetDropReasonIsInterfaceDown(packetDropped)
attr title "packet drop: interface down, count"
scalar TARPNetwork.nodeA.wlan[0].mac packetDropInterfaceDown:sum(packetBytes) 0
attr interpolationmode none
attr source packetDropReasonIsInterfaceDown(packetDropped)
attr title "packet drop: interface down, sum(packetBytes)"
scalar TARPNetwork.nodeA.wlan[0].mac packetDropNotAddressedToUs:count 0
attr interpolationmode none
attr source packetDropReasonIsNotAddressedToUs(packetDropped)
attr title "packet drop: not addressed to us, count"
scalar TARPNetwork.nodeA.wlan[0].mac packetDropNotAddressedToUs:sum(packetBytes) 0
attr interpolationmode none
attr source packetDropReasonIsNotAddressedToUs(packetDropped)
attr title "packet drop: not addressed to us, sum(packetBytes)"
scalar TARPNetwork.nodeA.wlan[0].mac linkBroken:count 0
attr interpolationmode none
attr source linkBroken
attr title "link break, count"
statistic TARPNetwork.nodeA.wlan[0].radio minSnir:histogram
field count 0
field mean nan
field stddev nan
field min nan
field max nan
field sum 0
field sqrsum 0
attr source minimumSnir(packetSentToUpper)
attr title "Min SNIR, histogram"
bin	-inf	0
bin	0	0
bin	1	0
statistic TARPNetwork.nodeA.wlan[0].radio packetErrorRate:histogram
field count 817
field mean 0.84332925336597
field stddev 0.36371271864545
field min 0
field max 1
field sum 689
field sqrsum 689
attr source packetErrorRate(packetSentToUpper)
attr title "Packet error rate, histogram"
bin	-inf	0
bin	0	128
bin	1	689
bin	2	0
statistic TARPNetwork.nodeA.wlan[0].radio bitErrorRate:histogram
field count 817
field mean 0.84332925336597
field stddev 0.36371271864545
field min 0
field max 1
field sum 689
field sqrsum 689
attr source bitErrorRate(packetSentToUpper)
attr title "Bit error rate, histogram"
bin	-inf	0
bin	0	128
bin	1	689
bin	2	0
statistic TARPNetwork.nodeA.wlan[0].radio symbolErrorRate:histogram
field count 817
field mean 0.84332925336597
field stddev 0.36371271864545
field min 0
field max 1
field sum 689
field sqrsum 689
attr source symbolErrorRate(packetSentToUpper)
attr title "Symbol error rate, histogram"
bin	-inf	0
bin	0	128
bin	1	689
bin	2	0
scalar TARPNetwork.nodeA.wlan[0].radio transmissionState:count 600
attr interpolationmode sample-hold
attr source transmissionStateChanged
attr title "Radio transmission state, count"
scalar TARPNetwork.nodeA.wlan[0].radio receptionState:count 2195
attr interpolationmode sample-hold
attr source receptionStateChanged
attr title "Radio reception state, count"
scalar TARPNetwork.nodeA.wlan[0].radio radioMode:count 3
attr interpolationmode sample-hold
attr source radioModeChanged
attr title "Radio mode, count"
scalar TARPNetwork.nodeA.generic.np nbDataPacketsReceived 202
scalar TARPNetwork.nodeA.generic.np nbDataPacketsSent 300
scalar TARPNetwork.nodeA.generic.np nbDataPacketsForwarded 0
scalar TARPNetwork.nodeA.generic.np meanNbHops 6.4306930693069
scalar TARPNetwork.nodeA.generic.np nbSPD 0
scalar TARPNetwork.nodeA.udp packetReceived:count 0
attr interpolationmode none
attr source packetReceived
attr title "packets received, count"
scalar TARPNetwork.nodeA.udp packetReceived:sum(packetBytes) 0
attr interpolationmode none
attr source packetReceived
attr title "packets received, sum(packetBytes)"
scalar TARPNetwork.nodeA.udp packetSent:count 0
attr interpolationmode none
attr source packetSent
attr title "packets sent, count"
scalar TARPNetwork.nodeA.udp packetSent:sum(packetBytes) 0
attr interpolationmode none
attr source packetSent
attr title "packets sent, sum(packetBytes)"
scalar TARPNetwork.nodeA.udp passedUpPk:count 0
attr interpolationmode none
attr source packetSentToUpper
attr title "packets passed up, count"
scalar TARPNetwork.nodeA.udp droppedPkWrongPort:count 0
attr interpolationmode none
attr source packetDropReasonIsNoPortFound(packetDropped)
attr title "packets dropped (wrong port), count"
scalar TARPNetwork.nodeA.udp droppedPkBadChecksum:count 0
attr interpolationmode none
attr source packetDropReasonIsIncorrectlyReceived(packetDropped)
attr title "packets dropped (checksum error), count"
scalar TARPNetwork.nodeA.app[0] "Pings sent" 300
scalar TARPNetwork.nodeA.app[0] "ping loss rate (%)" 32.666666666667
scalar TARPNetwork.nodeA.app[0] "ping out-of-order rate (%)" 0
scalar TARPNetwork.nodeA.app[0] pingRxSeq:count 202
attr interpolationmode none
attr title "ping rx seq, count"
scalar TARPNetwork.nodeA.app[0] pingTxSeq:count 300
attr interpolationmode none
attr title "ping tx seq, count"
scalar TARPNetwork.nodeA.app[0] numOutOfOrderArrivals:last nan
attr interpolationmode none
attr title "ping out-of-order arrivals, last"
scalar TARPNetwork.nodeA.app[0] numLost:last 94
attr interpolationmode none
attr title "pings lost, last"
statistic TARPNetwork.nodeA.app[0] rtt:histogram
field count 202
field mean 0.0051577815171535
field stddev 0.00056011926039673
field min 0.00416283861
field max 0.007076224164
field sum 1.041871866465
field sqrsum 0.0054368079068547
attr interpolationmode none
attr title "ping round-trip time, histogram"
attr unit s
bin	-inf	0
bin	0.00395	0
bin	0.004	0
bin	0.00405	0
bin	0.0041	0
bin	0.00415	7
bin	0.0042	0
bin	0.00425	0
bin	0.0043	0
bin	0.00435	0
bin	0.0044	0
bin	0.00445	0
bin	0.0045	0
bin	0.00455	34
bin	0.0046	0
bin	0.00465	0
bin	0.0047	0
bin	0.00475	0
bin	0.0048	0
bin	0.00485	0
bin	0.0049	0
bin	0.00495	93
bin	0.005	0
bin	0.00505	0
bin	0.0051	0
bin	0.00515	0
bin	0.0052	0
bin	0.00525	0
bin	0.0053	0
bin	0.00535	0
bin	0.0054	38
bin	0.00545	0
bin	0.0055	0
bin	0.00555	0
bin	0.0056	0
bin	0.00565	0
bin	0.0057	0
bin	0.00575	0
bin	0.0058	12
bin	0.00585	0
bin	0.0059	0
bin	0.00595	0
bin	0.006	0
bin	0.00605	0
bin	0.0061	0
bin	0.00615	0
bin	0.0062	11
bin	0.00625	0
bin	0.0063	0
bin	0.00635	0
bin	0.0064	0
bin	0.00645	0
bin	0.0065	0
bin	0.00655	0
bin	0.0066	0
bin	0.00665	3
bin	0.0067	0
bin	0.00675	0
bin	0.0068	0
bin	0.00685	0
bin	0.0069	0
bin	0.00695	0
bin	0.007	0
bin	0.00705	4
bin	0.0071	0
bin	0.00715	0
bin	0.0072	0
bin	0.00725	0
bin	0.0073	0
bin	0.00735	0
bin	0.0074	0
bin	0.00745	0
bin	0.0075	0
bin	0.00755	0
bin	0.0076	0
bin	0.00765	0
bin	0.0077	0
bin	0.00775	0
scalar TARPNetwork.nodeB.lo[0].lo rcvdPkFromHl:count 0
attr interpolationmode none
attr source packetReceivedFromUpper
attr title "packets received from higher layer, count"
scalar TARPNetwork.nodeB.lo[0].lo rcvdPkFromHl:sum(packetBytes) 0
attr interpolationmode none
attr source packetReceivedFromUpper
attr title "packets received from higher layer, sum(packetBytes)"
scalar TARPNetwork.nodeB.lo[0].lo passedUpPk:count 0
attr interpolationmode none
attr source packetSentToUpper
attr title "packets passed to higher layer, count"
scalar TARPNetwork.nodeB.lo[0].lo passedUpPk:sum(packetBytes) 0
attr interpolationmode none
attr source packetSentToUpper
attr title "packets passed to higher layer, sum(packetBytes)"
scalar TARPNetwork.nodeB.wlan[0].mac.queue packetPopped:count 299
attr interpolationmode none
attr title "packet popped, count"
scalar TARPNetwork.nodeB.wlan[0].mac.queue packetPopped:sum(packetBytes) 22724
attr interpolationmode none
attr title "packet popped, sum(packetBytes)"
statistic TARPNetwork.nodeB.wlan[0].mac.queue queueingTime:histogram
field count 299
field mean 0
field stddev 0
field min 0
field max 0
field sum 0
field sqrsum 0
attr interpolationmode none
attr source queueingTime(packetPopped)
attr title "queueing times, histogram"
attr unit s
bin	-inf	0
bin	-0.5	0
bin	-0.48	0
bin	-0.46	0
bin	-0.44	0
bin	-0.42	0
bin	-0.4	0
bin	-0.38	0
bin	-0.36	0
bin	-0.34	0
bin	-0.32	0
bin	-0.3	0
bin	-0.28	0
bin	-0.26	0
bin	-0.24	0
bin	-0.22	0
bin	-0.2	0
bin	-0.18	0
bin	-0.16	0
bin	-0.14	0
bin	-0.12	0
bin	-0.1	0
bin	-0.08	0
bin	-0.06	0
bin	-0.04	0
bin	-0.02	0
bin	0	299
bin	0.02	0
bin	0.04	0
bin	0.06	0
bin	0.08	0
bin	0.1	0
bin	0.12	0
bin	0.14	0
bin	0.16	0
bin	0.18	0
bin	0.2	0
bin	0.22	0
bin	0.24	0
bin	0.26	0
bin	0.28	0
bin	0.3	0
bin	0.32	0
bin	0.34	0
bin	0.36	0
bin	0.38	0
bin	0.4	0
bin	0.42	0
bin	0.44	0
bin	0.46	0
bin	0.48	0
bin	0.5	0
scalar TARPNetwork.nodeB.wlan[0].mac.queue queueLength:max 1
attr interpolationmode sample-hold
attr source "count(packetPushed) - count(packetPopped) - count(packetRemoved) - count(packetDropped)"
attr title "queue length, max"
scalar TARPNetwork.nodeB.wlan[0].mac.queue queueLength:timeavg 0
attr interpolationmode sample-hold
attr source "count(packetPushed) - count(packetPopped) - count(packetRemoved) - count(packetDropped)"
attr title "queue length, timeavg"
scalar TARPNetwork.nodeB.wlan[0].mac.queue packetPushed:count 299
attr interpolationmode none
attr title "packet pushed, count"
scalar TARPNetwork.nodeB.wlan[0].mac.queue packetPushed:sum(packetBytes) 22724
attr interpolationmode none
attr title "packet pushed, sum(packetBytes)"
scalar TARPNetwork.nodeB.wlan[0].mac.queue packetDropQueueOverflow:count 0
attr interpolationmode none
attr source packetDropReasonIsQueueOverflow(packetDropped)
attr title "packet drops: queue overflow, count"
scalar TARPNetwork.nodeB.wlan[0].mac.queue packetDropQueueOverflow:sum(packetBytes) 0
attr interpolationmode none
attr source packetDropReasonIsQueueOverflow(packetDropped)
attr title "packet drops: queue overflow, sum(packetBytes)"
scalar TARPNetwork.nodeB.wlan[0].mac.queue packetRemoved:count 0
attr interpolationmode none
attr title "packets removed, count"
scalar TARPNetwork.nodeB.wlan[0].mac.queue packetRemoved:sum(packetBytes) 0
attr interpolationmode none
attr title "packets removed, sum(packetBytes)"
scalar TARPNetwork.nodeB.wlan[0].mac rcvdPkFromLl:count 923
attr interpolationmode none
attr source packetReceivedFromLower
attr title "packets received from lower layer, count"
scalar TARPNetwork.nodeB.wlan[0].mac rcvdPkFromLl:sum(packetBytes) 84916
attr interpolationmode none
attr source packetReceivedFromLower
attr title "packets received from lower layer, sum(packetBytes)"
scalar TARPNetwork.nodeB.wlan[0].mac sentDownPk:count 299
attr interpolationmode none
attr source packetSentToLower
attr title "packets sent to lower layer, count"
scalar TARPNetwork.nodeB.wlan[0].mac sentDownPk:sum(packetBytes) 27508
attr interpolationmode none
attr source packetSentToLower
attr title "packets sent to lower layer, sum(packetBytes)"
scalar TARPNetwork.nodeB.wlan[0].mac rcvdPkFromHl:count 299
attr interpolationmode none
attr source packetReceivedFromUpper
attr title "packets received from higher layer, count"
scalar TARPNetwork.nodeB.wlan[0].mac rcvdPkFromHl:sum(packetBytes) 22724
attr interpolationmode none
attr source packetReceivedFromUpper
attr title "packets received from higher layer, sum(packetBytes)"
scalar TARPNetwork.nodeB.wlan[0].mac passedUpPk:count 923
attr interpolationmode none
attr source packetSentToUpper
attr title "packets passed to higher layer, count"
scalar TARPNetwork.nodeB.wlan[0].mac passedUpPk:sum(packetBytes) 70148
attr interpolationmode none
attr source packetSentToUpper
attr title "packets passed to higher layer, sum(packetBytes)"
scalar TARPNetwork.nodeB.wlan[0].mac packetDropIncorrectlyReceived:count 0
attr interpolationmode none
attr source packetDropReasonIsIncorrectlyReceived(packetDropped)
attr title "packet drop: incorrectly received, count"
scalar TARPNetwork.nodeB.wlan[0].mac packetDropIncorrectlyReceived:sum(packetBytes) 0
attr interpolationmode none
attr source packetDropReasonIsIncorrectlyReceived(packetDropped)
attr title "packet drop: incorrectly received, sum(packetBytes)"
scalar TARPNetwork.nodeB.wlan[0].mac packetDropInterfaceDown:count 0
attr interpolationmode none
attr source packetDropReasonIsInterfaceDown(packetDropped)
attr title "packet drop: interface down, count"
scalar TARPNetwork.nodeB.wlan[0].mac packetDropInterfaceDown:sum(packetBytes) 0
attr interpolationmode none
attr source packetDropReasonIsInterfaceDown(packetDropped)
attr title "packet drop: interface down, sum(packetBytes)"
scalar TARPNetwork.nodeB.wlan[0].mac packetDropNotAddressedToUs:count 0
attr interpolationmode none
attr source packetDropReasonIsNotAddressedToUs(packetDropped)
attr title "packet drop: not addressed to us, count"
scalar TARPNetwork.nodeB.wlan[0].mac packetDropNotAddressedToUs:sum(packetBytes) 0
attr interpolationmode none
attr source packetDropReasonIsNotAddressedToUs(packetDropped)
attr title "packet drop: not addressed to us, sum(packetBytes)"
scalar TARPNetwork.nodeB.wlan[0].mac linkBroken:count 0
attr interpolationmode none
attr source linkBroken
attr title "link break, count"
statistic TARPNetwork.nodeB.wlan[0].radio minSnir:histogram
field count 0
field mean nan
field stddev nan
field min nan
field max nan
field sum 0
field sqrsum 0
attr source minimumSnir(packetSentToUpper)
attr title "Min SNIR, histogram"
bin	-inf	0
bin	0	0
bin	1	0
statistic TARPNetwork.nodeB.wlan[0].radio packetErrorRate:histogram
field count 923
field mean 0.77248104008667
field stddev 0.41945763247643
field min 0
field max 1
field sum 713
field sqrsum 713
attr source packetErrorRate(packetSentToUpper)
attr title "Packet error rate, histogram"
bin	-inf	0
bin	0	210
bin	1	713
bin	2	0
statistic TARPNetwork.nodeB.wlan[0].radio bitErrorRate:histogram
field count 923
field mean 0.77248104008667
field stddev 0.41945763247643
field min 0
field max 1
field sum 713
field sqrsum 713
attr source bitErrorRate(packetSentToUpper)
attr title "Bit error rate, histogram"
bin	-inf	0
bin	0	210
bin	1	713
bin	2	0
statistic TARPNetwork.nodeB.wlan[0].radio symbolErrorRate:histogram
field count 923
field mean 0.77248104008667
field stddev 0.41945763247643
field min 0
field max 1
field sum 713
field sqrsum 713
attr source symbolErrorRate(packetSentToUpper)
attr title "Symbol error rate, histogram"
bin	-inf	0
bin	0	210
bin	1	713
bin	2	0
scalar TARPNetwork.nodeB.wlan[0].radio transmissionState:count 599
attr interpolationmode sample-hold
attr source transmissionStateChanged
attr title "Radio transmission state, count"
scalar TARPNetwork.nodeB.wlan[0].radio receptionState:count 2317
attr interpolationmode sample-hold
attr source receptionStateChanged
attr title "Radio reception state, count"
scalar TARPNetwork.nodeB.wlan[0].radio radioMode:count 3
attr interpolationmode sample-hold
attr source radioModeChanged
attr title "Radio mode, count"
scalar TARPNetwork.nodeB.generic.np nbDataPacketsReceived 299
scalar TARPNetwork.nodeB.generic.np nbDataPacketsSent 299
scalar TARPNetwork.nodeB.generic.np nbDataPacketsForwarded 0
scalar TARPNetwork.nodeB.generic.np meanNbHops 5.8729096989967
scalar TARPNetwork.nodeB.generic.np nbSPD 0
scalar TARPNetwork.nodeB.udp packetReceived:count 0
attr interpolationmode none
attr source packetReceived
attr title "packets received, count"
scalar TARPNetwork.nodeB.udp packetReceived:sum(packetBytes) 0
attr interpolationmode none
attr source packetReceived
attr title "packets received, sum(packetBytes)"
scalar TARPNetwork.nodeB.udp packetSent:count 0
attr interpolationmode none
attr source packetSent
attr title "packets sent, count"
scalar TARPNetwork.nodeB.udp packetSent:sum(packetBytes) 0
attr interpolationmode none
attr source packetSent
attr title "packets sent, sum(packetBytes)"
scalar TARPNetwork.nodeB.udp passedUpPk:count 0
attr interpolationmode none
attr source packetSentToUpper
attr title "packets passed up, count"
scalar TARPNetwork.nodeB.udp droppedPkWrongPort:count 0
attr interpolationmode none
attr source packetDropReasonIsNoPortFound(packetDropped)
attr title "packets dropped (wrong port), count"
scalar TARPNetwork.nodeB.udp droppedPkBadChecksum:count 0
attr interpolationmode none
attr source packetDropReasonIsIncorrectlyReceived(packetDropped)
attr title "packets dropped (checksum error), count"

