version 2
run RandomWaypointMobility-0-20211008-00:50:19-7124
attr configname RandomWaypointMobility
attr datetime 20211008-00:50:19
attr experiment RandomWaypointMobility
attr inifile omnetpp.ini
attr iterationvars ""
attr iterationvarsf ""
attr measurement ""
attr network TARPNetwork
attr processid 7124
attr repetition 0
attr replication #0
attr resultdir results
attr runnumber 0
attr seedset 0
param **.numNodes 40
param **.node[*].mobility.typename "\"RandomWaypointMobility\""
param **.node[*].mobility.speed "normal(2mps, 0.01mps)"
param **.node[*].mobility.waitTime 0s
param *.visualizer.mobilityVisualizer.displayVelocities true
param *.visualizer.mobilityVisualizer.displayMovementTrails true
param **.node[*].mobility.typename "\"StationaryMobility\""
param **.mobility.constraintAreaMinZ 0m
param **.mobility.constraintAreaMaxZ 0m
param **.mobility.constraintAreaMinX 0m
param **.mobility.constraintAreaMinY 0m
param **.mobility.constraintAreaMaxX 500m
param **.mobility.constraintAreaMaxY 500m
param **.numNodes 60
param *.node*.typename "\"Node\""
param *.node[17].numApps 1
param *.node[17].app[0].typename "\"UdpBasicApp\""
param *.node[17].app[0].destAddresses "\"node[22]\""
param *.node[17].app[0].destPort 5000
param *.node[17].app[0].messageLength 1000B
param *.node[17].app[0].sendInterval 1s
param *.node[17].app[0].packetName "\"UDPData\""
param *.node[22].numApps 1
param *.node[22].app[0].typename "\"UdpEchoApp\""
param *.node[22].app[0].localPort 5000
param **.wlan[*].typename "\"AckingWirelessInterface\""
param **.bitrate 1Mbps
param **.wlan[*].radio.transmitter.communicationRange 100m
param **.wlan[*].radio.transmitter.interferenceRange 0m
param **.wlan[*].radio.transmitter.detectionRange 0m
param **.wlan[*].radio.receiver.ignoreInterference true
param *.visualizer.sceneVisualizer.descriptionFigure "\"title\""
param *.node[17].wlan[0].radio.displayCommunicationRange true
param *.node[22].wlan[0].radio.displayCommunicationRange true
param *.visualizer.physicalLinkVisualizer.displayLinks false
param *.visualizer.dataLinkVisualizer.displayLinks false
param *.visualizer.networkRouteVisualizer.displayRoutes false
param *.visualizer.*LinkVisualizer.lineShift 0
param *.visualizer.networkRouteVisualizer.lineShift 0
param *.visualizer.networkRouteVisualizer.packetFilter "\"TARP*\""
param *.visualizer.mediumVisualizer.displaySignalDepartures true
param **.hasIpv4 false
param **.hasIpv6 false
param **.hasGn true
param **.forwarding true
param **.generic.typename "\"SimpleNetworkLayer\""
param **.generic.np.typename "\"TarpF\""
param **.app[*].networkProtocol "\"tarpf\""
param **.plainFlooding true
param **.ddMaxEntries 100
param **.ddDelTime 100s
param **.spdRule true
param **.spdDelTime 10s
param **.slack 2

scalar TARPNetwork.radioMedium.propagation "Arrival computation count" 408993
scalar TARPNetwork.radioMedium "transmission count" 10487
scalar TARPNetwork.radioMedium "signal send count" 408993
scalar TARPNetwork.radioMedium "reception computation count" 408954
scalar TARPNetwork.radioMedium "interference computation count" 969817
scalar TARPNetwork.radioMedium "reception decision computation count" 29983
scalar TARPNetwork.radioMedium "listening decision computation count" 530880
scalar TARPNetwork.radioMedium "reception cache hit" 94.474130006593
attr unit %
scalar TARPNetwork.radioMedium "interference cache hit" 66.666666666667
attr unit %
scalar TARPNetwork.radioMedium "noise cache hit" 0
attr unit %
scalar TARPNetwork.radioMedium "snir cache hit" 50
attr unit %
scalar TARPNetwork.radioMedium "reception decision cache hit" 50
attr unit %
scalar TARPNetwork.radioMedium "reception result cache hit" 0
attr unit %
scalar TARPNetwork.node[0].lo[0].lo rcvdPkFromHl:count 0
attr interpolationmode none
attr source packetReceivedFromUpper
attr title "packets received from higher layer, count"
scalar TARPNetwork.node[0].lo[0].lo rcvdPkFromHl:sum(packetBytes) 0
attr interpolationmode none
attr source packetReceivedFromUpper
attr title "packets received from higher layer, sum(packetBytes)"
scalar TARPNetwork.node[0].lo[0].lo passedUpPk:count 0
attr interpolationmode none
attr source packetSentToUpper
attr title "packets passed to higher layer, count"
scalar TARPNetwork.node[0].lo[0].lo passedUpPk:sum(packetBytes) 0
attr interpolationmode none
attr source packetSentToUpper
attr title "packets passed to higher layer, sum(packetBytes)"
scalar TARPNetwork.node[0].wlan[0].mac.queue packetPopped:count 320
attr interpolationmode none
attr title "packet popped, count"
scalar TARPNetwork.node[0].wlan[0].mac.queue packetPopped:sum(packetBytes) 326400
attr interpolationmode none
attr title "packet popped, sum(packetBytes)"
statistic TARPNetwork.node[0].wlan[0].mac.queue queueingTime:histogram
field count 320
field mean 0
field stddev 0
field min 0
field max 0
field sum 0
field sqrsum 0
attr interpolationmode none
attr source queueingTime(packetPopped)
attr title "queueing times, histogram"
attr unit s
bin	-inf	0
bin	-0.5	0
bin	-0.48	0
bin	-0.46	0
bin	-0.44	0
bin	-0.42	0
bin	-0.4	0
bin	-0.38	0
bin	-0.36	0
bin	-0.34	0
bin	-0.32	0
bin	-0.3	0
bin	-0.28	0
bin	-0.26	0
bin	-0.24	0
bin	-0.22	0
bin	-0.2	0
bin	-0.18	0
bin	-0.16	0
bin	-0.14	0
bin	-0.12	0
bin	-0.1	0
bin	-0.08	0
bin	-0.06	0
bin	-0.04	0
bin	-0.02	0
bin	0	320
bin	0.02	0
bin	0.04	0
bin	0.06	0
bin	0.08	0
bin	0.1	0
bin	0.12	0
bin	0.14	0
bin	0.16	0
bin	0.18	0
bin	0.2	0
bin	0.22	0
bin	0.24	0
bin	0.26	0
bin	0.28	0
bin	0.3	0
bin	0.32	0
bin	0.34	0
bin	0.36	0
bin	0.38	0
bin	0.4	0
bin	0.42	0
bin	0.44	0
bin	0.46	0
bin	0.48	0
bin	0.5	0
scalar TARPNetwork.node[0].wlan[0].mac.queue queueLength:max 1
attr interpolationmode sample-hold
attr source "count(packetPushed) - count(packetPopped) - count(packetRemoved) - count(packetDropped)"
attr title "queue length, max"
scalar TARPNetwork.node[0].wlan[0].mac.queue queueLength:timeavg 0
attr interpolationmode sample-hold
attr source "count(packetPushed) - count(packetPopped) - count(packetRemoved) - count(packetDropped)"
attr title "queue length, timeavg"
scalar TARPNetwork.node[0].wlan[0].mac.queue packetPushed:count 320
attr interpolationmode none
attr title "packet pushed, count"
scalar TARPNetwork.node[0].wlan[0].mac.queue packetPushed:sum(packetBytes) 326400
attr interpolationmode none
attr title "packet pushed, sum(packetBytes)"
scalar TARPNetwork.node[0].wlan[0].mac.queue packetDropQueueOverflow:count 0
attr interpolationmode none
attr source packetDropReasonIsQueueOverflow(packetDropped)
attr title "packet drops: queue overflow, count"
scalar TARPNetwork.node[0].wlan[0].mac.queue packetDropQueueOverflow:sum(packetBytes) 0
attr interpolationmode none
attr source packetDropReasonIsQueueOverflow(packetDropped)
attr title "packet drops: queue overflow, sum(packetBytes)"
scalar TARPNetwork.node[0].wlan[0].mac.queue packetRemoved:count 0
attr interpolationmode none
attr title "packets removed, count"
scalar TARPNetwork.node[0].wlan[0].mac.queue packetRemoved:sum(packetBytes) 0
attr interpolationmode none
attr title "packets removed, sum(packetBytes)"
scalar TARPNetwork.node[0].wlan[0].mac rcvdPkFromLl:count 933
attr interpolationmode none
attr source packetReceivedFromLower
attr title "packets received from lower layer, count"
scalar TARPNetwork.node[0].wlan[0].mac rcvdPkFromLl:sum(packetBytes) 966588
attr interpolationmode none
attr source packetReceivedFromLower
attr title "packets received from lower layer, sum(packetBytes)"
scalar TARPNetwork.node[0].wlan[0].mac sentDownPk:count 320
attr interpolationmode none
attr source packetSentToLower
attr title "packets sent to lower layer, count"
scalar TARPNetwork.node[0].wlan[0].mac sentDownPk:sum(packetBytes) 331520
attr interpolationmode none
attr source packetSentToLower
attr title "packets sent to lower layer, sum(packetBytes)"
scalar TARPNetwork.node[0].wlan[0].mac rcvdPkFromHl:count 320
attr interpolationmode none
attr source packetReceivedFromUpper
attr title "packets received from higher layer, count"
scalar TARPNetwork.node[0].wlan[0].mac rcvdPkFromHl:sum(packetBytes) 326400
attr interpolationmode none
attr source packetReceivedFromUpper
attr title "packets received from higher layer, sum(packetBytes)"
scalar TARPNetwork.node[0].wlan[0].mac passedUpPk:count 933
attr interpolationmode none
attr source packetSentToUpper
attr title "packets passed to higher layer, count"
scalar TARPNetwork.node[0].wlan[0].mac passedUpPk:sum(packetBytes) 951660
attr interpolationmode none
attr source packetSentToUpper
attr title "packets passed to higher layer, sum(packetBytes)"
scalar TARPNetwork.node[0].wlan[0].mac packetDropIncorrectlyReceived:count 0
attr interpolationmode none
attr source packetDropReasonIsIncorrectlyReceived(packetDropped)
attr title "packet drop: incorrectly received, count"
scalar TARPNetwork.node[0].wlan[0].mac packetDropIncorrectlyReceived:sum(packetBytes) 0
attr interpolationmode none
attr source packetDropReasonIsIncorrectlyReceived(packetDropped)
attr title "packet drop: incorrectly received, sum(packetBytes)"
scalar TARPNetwork.node[0].wlan[0].mac packetDropInterfaceDown:count 0
attr interpolationmode none
attr source packetDropReasonIsInterfaceDown(packetDropped)
attr title "packet drop: interface down, count"
scalar TARPNetwork.node[0].wlan[0].mac packetDropInterfaceDown:sum(packetBytes) 0
attr interpolationmode none
attr source packetDropReasonIsInterfaceDown(packetDropped)
attr title "packet drop: interface down, sum(packetBytes)"
scalar TARPNetwork.node[0].wlan[0].mac packetDropNotAddressedToUs:count 0
attr interpolationmode none
attr source packetDropReasonIsNotAddressedToUs(packetDropped)
attr title "packet drop: not addressed to us, count"
scalar TARPNetwork.node[0].wlan[0].mac packetDropNotAddressedToUs:sum(packetBytes) 0
attr interpolationmode none
attr source packetDropReasonIsNotAddressedToUs(packetDropped)
attr title "packet drop: not addressed to us, sum(packetBytes)"
scalar TARPNetwork.node[0].wlan[0].mac linkBroken:count 0
attr interpolationmode none
attr source linkBroken
attr title "link break, count"
statistic TARPNetwork.node[0].wlan[0].radio minSnir:histogram
field count 0
field mean nan
field stddev nan
field min nan
field max nan
field sum 0
field sqrsum 0
attr source minimumSnir(packetSentToUpper)
attr title "Min SNIR, histogram"
bin	-inf	0
bin	0	0
bin	1	0
statistic TARPNetwork.node[0].wlan[0].radio packetErrorRate:histogram
field count 933
field mean 0.7620578778135
field stddev 0.42605190307564
field min 0
field max 1
field sum 711
field sqrsum 711
attr source packetErrorRate(packetSentToUpper)
attr title "Packet error rate, histogram"
bin	-inf	0
bin	0	222
bin	1	711
bin	2	0
statistic TARPNetwork.node[0].wlan[0].radio bitErrorRate:histogram
field count 933
field mean 0.7620578778135
field stddev 0.42605190307564
field min 0
field max 1
field sum 711
field sqrsum 711
attr source bitErrorRate(packetSentToUpper)
attr title "Bit error rate, histogram"
bin	-inf	0
bin	0	222
bin	1	711
bin	2	0
statistic TARPNetwork.node[0].wlan[0].radio symbolErrorRate:histogram
field count 933
field mean 0.7620578778135
field stddev 0.42605190307564
field min 0
field max 1
field sum 711
field sqrsum 711
attr source symbolErrorRate(packetSentToUpper)
attr title "Symbol error rate, histogram"
bin	-inf	0
bin	0	222
bin	1	711
bin	2	0
scalar TARPNetwork.node[0].wlan[0].radio transmissionState:count 641
attr interpolationmode sample-hold
attr source transmissionStateChanged
attr title "Radio transmission state, count"
scalar TARPNetwork.node[0].wlan[0].radio receptionState:count 2311
attr interpolationmode sample-hold
attr source receptionStateChanged
attr title "Radio reception state, count"
scalar TARPNetwork.node[0].wlan[0].radio radioMode:count 3
attr interpolationmode sample-hold
attr source radioModeChanged
attr title "Radio mode, count"
scalar TARPNetwork.node[0].generic.np nbDataPacketsReceived 0
scalar TARPNetwork.node[0].generic.np nbDataPacketsSent 0
scalar TARPNetwork.node[0].generic.np nbDataPacketsForwarded 320
scalar TARPNetwork.node[0].generic.np meanNbHops 0
scalar TARPNetwork.node[0].generic.np nbSpdDrops 73
scalar TARPNetwork.node[0].udp packetReceived:count 0
attr interpolationmode none
attr source packetReceived
attr title "packets received, count"
scalar TARPNetwork.node[0].udp packetReceived:sum(packetBytes) 0
attr interpolationmode none
attr source packetReceived
attr title "packets received, sum(packetBytes)"
scalar TARPNetwork.node[0].udp packetSent:count 0
attr interpolationmode none
attr source packetSent
attr title "packets sent, count"
scalar TARPNetwork.node[0].udp packetSent:sum(packetBytes) 0
attr interpolationmode none
attr source packetSent
attr title "packets sent, sum(packetBytes)"
scalar TARPNetwork.node[0].udp passedUpPk:count 0
attr interpolationmode none
attr source packetSentToUpper
attr title "packets passed up, count"
scalar TARPNetwork.node[0].udp droppedPkWrongPort:count 0
attr interpolationmode none
attr source packetDropReasonIsNoPortFound(packetDropped)
attr title "packets dropped (wrong port), count"
scalar TARPNetwork.node[0].udp droppedPkBadChecksum:count 0
attr interpolationmode none
attr source packetDropReasonIsIncorrectlyReceived(packetDropped)
attr title "packets dropped (checksum error), count"
scalar TARPNetwork.node[1].lo[0].lo rcvdPkFromHl:count 0
attr interpolationmode none
attr source packetReceivedFromUpper
attr title "packets received from higher layer, count"
scalar TARPNetwork.node[1].lo[0].lo rcvdPkFromHl:sum(packetBytes) 0
attr interpolationmode none
attr source packetReceivedFromUpper
attr title "packets received from higher layer, sum(packetBytes)"
scalar TARPNetwork.node[1].lo[0].lo passedUpPk:count 0
attr interpolationmode none
attr source packetSentToUpper
attr title "packets passed to higher layer, count"
scalar TARPNetwork.node[1].lo[0].lo passedUpPk:sum(packetBytes) 0
attr interpolationmode none
attr source packetSentToUpper
attr title "packets passed to higher layer, sum(packetBytes)"
scalar TARPNetwork.node[1].wlan[0].mac.queue packetPopped:count 229
attr interpolationmode none
attr title "packet popped, count"
scalar TARPNetwork.node[1].wlan[0].mac.queue packetPopped:sum(packetBytes) 233580
attr interpolationmode none
attr title "packet popped, sum(packetBytes)"
statistic TARPNetwork.node[1].wlan[0].mac.queue queueingTime:histogram
field count 229
field mean 0
field stddev 0
field min 0
field max 0
field sum 0
field sqrsum 0
attr interpolationmode none
attr source queueingTime(packetPopped)
attr title "queueing times, histogram"
attr unit s
bin	-inf	0
bin	-0.5	0
bin	-0.48	0
bin	-0.46	0
bin	-0.44	0
bin	-0.42	0
bin	-0.4	0
bin	-0.38	0
bin	-0.36	0
bin	-0.34	0
bin	-0.32	0
bin	-0.3	0
bin	-0.28	0
bin	-0.26	0
bin	-0.24	0
bin	-0.22	0
bin	-0.2	0
bin	-0.18	0
bin	-0.16	0
bin	-0.14	0
bin	-0.12	0
bin	-0.1	0
bin	-0.08	0
bin	-0.06	0
bin	-0.04	0
bin	-0.02	0
bin	0	229
bin	0.02	0
bin	0.04	0
bin	0.06	0
bin	0.08	0
bin	0.1	0
bin	0.12	0
bin	0.14	0
bin	0.16	0
bin	0.18	0
bin	0.2	0
bin	0.22	0
bin	0.24	0
bin	0.26	0
bin	0.28	0
bin	0.3	0
bin	0.32	0
bin	0.34	0
bin	0.36	0
bin	0.38	0
bin	0.4	0
bin	0.42	0
bin	0.44	0
bin	0.46	0
bin	0.48	0
bin	0.5	0
scalar TARPNetwork.node[1].wlan[0].mac.queue queueLength:max 1
attr interpolationmode sample-hold
attr source "count(packetPushed) - count(packetPopped) - count(packetRemoved) - count(packetDropped)"
attr title "queue length, max"
scalar TARPNetwork.node[1].wlan[0].mac.queue queueLength:timeavg 0
attr interpolationmode sample-hold
attr source "count(packetPushed) - count(packetPopped) - count(packetRemoved) - count(packetDropped)"
attr title "queue length, timeavg"
scalar TARPNetwork.node[1].wlan[0].mac.queue packetPushed:count 229
attr interpolationmode none
attr title "packet pushed, count"
scalar TARPNetwork.node[1].wlan[0].mac.queue packetPushed:sum(packetBytes) 233580
attr interpolationmode none
attr title "packet pushed, sum(packetBytes)"
scalar TARPNetwork.node[1].wlan[0].mac.queue packetDropQueueOverflow:count 0
attr interpolationmode none
attr source packetDropReasonIsQueueOverflow(packetDropped)
attr title "packet drops: queue overflow, count"
scalar TARPNetwork.node[1].wlan[0].mac.queue packetDropQueueOverflow:sum(packetBytes) 0
attr interpolationmode none
attr source packetDropReasonIsQueueOverflow(packetDropped)
attr title "packet drops: queue overflow, sum(packetBytes)"
scalar TARPNetwork.node[1].wlan[0].mac.queue packetRemoved:count 0
attr interpolationmode none
attr title "packets removed, count"
scalar TARPNetwork.node[1].wlan[0].mac.queue packetRemoved:sum(packetBytes) 0
attr interpolationmode none
attr title "packets removed, sum(packetBytes)"
scalar TARPNetwork.node[1].wlan[0].mac rcvdPkFromLl:count 615
attr interpolationmode none
attr source packetReceivedFromLower
attr title "packets received from lower layer, count"
scalar TARPNetwork.node[1].wlan[0].mac rcvdPkFromLl:sum(packetBytes) 637140
attr interpolationmode none
attr source packetReceivedFromLower
attr title "packets received from lower layer, sum(packetBytes)"
scalar TARPNetwork.node[1].wlan[0].mac sentDownPk:count 229
attr interpolationmode none
attr source packetSentToLower
attr title "packets sent to lower layer, count"
scalar TARPNetwork.node[1].wlan[0].mac sentDownPk:sum(packetBytes) 237244
attr interpolationmode none
attr source packetSentToLower
attr title "packets sent to lower layer, sum(packetBytes)"
scalar TARPNetwork.node[1].wlan[0].mac rcvdPkFromHl:count 229
attr interpolationmode none
attr source packetReceivedFromUpper
attr title "packets received from higher layer, count"
scalar TARPNetwork.node[1].wlan[0].mac rcvdPkFromHl:sum(packetBytes) 233580
attr interpolationmode none
attr source packetReceivedFromUpper
attr title "packets received from higher layer, sum(packetBytes)"
scalar TARPNetwork.node[1].wlan[0].mac passedUpPk:count 615
attr interpolationmode none
attr source packetSentToUpper
attr title "packets passed to higher layer, count"
scalar TARPNetwork.node[1].wlan[0].mac passedUpPk:sum(packetBytes) 627300
attr interpolationmode none
attr source packetSentToUpper
attr title "packets passed to higher layer, sum(packetBytes)"
scalar TARPNetwork.node[1].wlan[0].mac packetDropIncorrectlyReceived:count 0
attr interpolationmode none
attr source packetDropReasonIsIncorrectlyReceived(packetDropped)
attr title "packet drop: incorrectly received, count"
scalar TARPNetwork.node[1].wlan[0].mac packetDropIncorrectlyReceived:sum(packetBytes) 0
attr interpolationmode none
attr source packetDropReasonIsIncorrectlyReceived(packetDropped)
attr title "packet drop: incorrectly received, sum(packetBytes)"
scalar TARPNetwork.node[1].wlan[0].mac packetDropInterfaceDown:count 0
attr interpolationmode none
attr source packetDropReasonIsInterfaceDown(packetDropped)
attr title "packet drop: interface down, count"
scalar TARPNetwork.node[1].wlan[0].mac packetDropInterfaceDown:sum(packetBytes) 0
attr interpolationmode none
attr source packetDropReasonIsInterfaceDown(packetDropped)
attr title "packet drop: interface down, sum(packetBytes)"
scalar TARPNetwork.node[1].wlan[0].mac packetDropNotAddressedToUs:count 0
attr interpolationmode none
attr source packetDropReasonIsNotAddressedToUs(packetDropped)
attr title "packet drop: not addressed to us, count"
scalar TARPNetwork.node[1].wlan[0].mac packetDropNotAddressedToUs:sum(packetBytes) 0
attr interpolationmode none
attr source packetDropReasonIsNotAddressedToUs(packetDropped)
attr title "packet drop: not addressed to us, sum(packetBytes)"
scalar TARPNetwork.node[1].wlan[0].mac linkBroken:count 0
attr interpolationmode none
attr source linkBroken
attr title "link break, count"
statistic TARPNetwork.node[1].wlan[0].radio minSnir:histogram
field count 0
field mean nan
field stddev nan
field min nan
field max nan
field sum 0
field sqrsum 0
attr source minimumSnir(packetSentToUpper)
attr title "Min SNIR, histogram"
bin	-inf	0
bin	0	0
bin	1	0
statistic TARPNetwork.node[1].wlan[0].radio packetErrorRate:histogram
field count 615
field mean 0.71869918699187
field stddev 0.44999992643791
field min 0
field max 1
field sum 442
field sqrsum 442
attr source packetErrorRate(packetSentToUpper)
attr title "Packet error rate, histogram"
bin	-inf	0
bin	0	173
bin	1	442
bin	2	0
statistic TARPNetwork.node[1].wlan[0].radio bitErrorRate:histogram
field count 615
field mean 0.71869918699187
field stddev 0.44999992643791
field min 0
field max 1
field sum 442
field sqrsum 442
attr source bitErrorRate(packetSentToUpper)
attr title "Bit error rate, histogram"
bin	-inf	0
bin	0	173
bin	1	442
bin	2	0
statistic TARPNetwork.node[1].wlan[0].radio symbolErrorRate:histogram
field count 615
field mean 0.71869918699187
field stddev 0.44999992643791
field min 0
field max 1
field sum 442
field sqrsum 442
attr source symbolErrorRate(packetSentToUpper)
attr title "Symbol error rate, histogram"
bin	-inf	0
bin	0	173
bin	1	442
bin	2	0
scalar TARPNetwork.node[1].wlan[0].radio transmissionState:count 459
attr interpolationmode sample-hold
attr source transmissionStateChanged
attr title "Radio transmission state, count"
scalar TARPNetwork.node[1].wlan[0].radio receptionState:count 1582
attr interpolationmode sample-hold
attr source receptionStateChanged
attr title "Radio reception state, count"
scalar TARPNetwork.node[1].wlan[0].radio radioMode:count 3
attr interpolationmode sample-hold
attr source radioModeChanged
attr title "Radio mode, count"
scalar TARPNetwork.node[1].generic.np nbDataPacketsReceived 0
scalar TARPNetwork.node[1].generic.np nbDataPacketsSent 0
scalar TARPNetwork.node[1].generic.np nbDataPacketsForwarded 229
scalar TARPNetwork.node[1].generic.np meanNbHops 0
scalar TARPNetwork.node[1].generic.np nbSpdDrops 67
scalar TARPNetwork.node[1].udp packetReceived:count 0
attr interpolationmode none
attr source packetReceived
attr title "packets received, count"
scalar TARPNetwork.node[1].udp packetReceived:sum(packetBytes) 0
attr interpolationmode none
attr source packetReceived
attr title "packets received, sum(packetBytes)"
scalar TARPNetwork.node[1].udp packetSent:count 0
attr interpolationmode none
attr source packetSent
attr title "packets sent, count"
scalar TARPNetwork.node[1].udp packetSent:sum(packetBytes) 0
attr interpolationmode none
attr source packetSent
attr title "packets sent, sum(packetBytes)"
scalar TARPNetwork.node[1].udp passedUpPk:count 0
attr interpolationmode none
attr source packetSentToUpper
attr title "packets passed up, count"
scalar TARPNetwork.node[1].udp droppedPkWrongPort:count 0
attr interpolationmode none
attr source packetDropReasonIsNoPortFound(packetDropped)
attr title "packets dropped (wrong port), count"
scalar TARPNetwork.node[1].udp droppedPkBadChecksum:count 0
attr interpolationmode none
attr source packetDropReasonIsIncorrectlyReceived(packetDropped)
attr title "packets dropped (checksum error), count"
scalar TARPNetwork.node[2].lo[0].lo rcvdPkFromHl:count 0
attr interpolationmode none
attr source packetReceivedFromUpper
attr title "packets received from higher layer, count"
scalar TARPNetwork.node[2].lo[0].lo rcvdPkFromHl:sum(packetBytes) 0
attr interpolationmode none
attr source packetReceivedFromUpper
attr title "packets received from higher layer, sum(packetBytes)"
scalar TARPNetwork.node[2].lo[0].lo passedUpPk:count 0
attr interpolationmode none
attr source packetSentToUpper
attr title "packets passed to higher layer, count"
scalar TARPNetwork.node[2].lo[0].lo passedUpPk:sum(packetBytes) 0
attr interpolationmode none
attr source packetSentToUpper
attr title "packets passed to higher layer, sum(packetBytes)"
scalar TARPNetwork.node[2].wlan[0].mac.queue packetPopped:count 131
attr interpolationmode none
attr title "packet popped, count"
scalar TARPNetwork.node[2].wlan[0].mac.queue packetPopped:sum(packetBytes) 133620
attr interpolationmode none
attr title "packet popped, sum(packetBytes)"
statistic TARPNetwork.node[2].wlan[0].mac.queue queueingTime:histogram
field count 131
field mean 0
field stddev 0
field min 0
field max 0
field sum 0
field sqrsum 0
attr interpolationmode none
attr source queueingTime(packetPopped)
attr title "queueing times, histogram"
attr unit s
bin	-inf	0
bin	-0.5	0
bin	-0.48	0
bin	-0.46	0
bin	-0.44	0
bin	-0.42	0
bin	-0.4	0
bin	-0.38	0
bin	-0.36	0
bin	-0.34	0
bin	-0.32	0
bin	-0.3	0
bin	-0.28	0
bin	-0.26	0
bin	-0.24	0
bin	-0.22	0
bin	-0.2	0
bin	-0.18	0
bin	-0.16	0
bin	-0.14	0
bin	-0.12	0
bin	-0.1	0
bin	-0.08	0
bin	-0.06	0
bin	-0.04	0
bin	-0.02	0
bin	0	131
bin	0.02	0
bin	0.04	0
bin	0.06	0
bin	0.08	0
bin	0.1	0
bin	0.12	0
bin	0.14	0
bin	0.16	0
bin	0.18	0
bin	0.2	0
bin	0.22	0
bin	0.24	0
bin	0.26	0
bin	0.28	0
bin	0.3	0
bin	0.32	0
bin	0.34	0
bin	0.36	0
bin	0.38	0
bin	0.4	0
bin	0.42	0
bin	0.44	0
bin	0.46	0
bin	0.48	0
bin	0.5	0
scalar TARPNetwork.node[2].wlan[0].mac.queue queueLength:max 1
attr interpolationmode sample-hold
attr source "count(packetPushed) - count(packetPopped) - count(packetRemoved) - count(packetDropped)"
attr title "queue length, max"
scalar TARPNetwork.node[2].wlan[0].mac.queue queueLength:timeavg 0
attr interpolationmode sample-hold
attr source "count(packetPushed) - count(packetPopped) - count(packetRemoved) - count(packetDropped)"
attr title "queue length, timeavg"
scalar TARPNetwork.node[2].wlan[0].mac.queue packetPushed:count 131
attr interpolationmode none
attr title "packet pushed, count"
scalar TARPNetwork.node[2].wlan[0].mac.queue packetPushed:sum(packetBytes) 133620
attr interpolationmode none
attr title "packet pushed, sum(packetBytes)"
scalar TARPNetwork.node[2].wlan[0].mac.queue packetDropQueueOverflow:count 0
attr interpolationmode none
attr source packetDropReasonIsQueueOverflow(packetDropped)
attr title "packet drops: queue overflow, count"
scalar TARPNetwork.node[2].wlan[0].mac.queue packetDropQueueOverflow:sum(packetBytes) 0
attr interpolationmode none
attr source packetDropReasonIsQueueOverflow(packetDropped)
attr title "packet drops: queue overflow, sum(packetBytes)"
scalar TARPNetwork.node[2].wlan[0].mac.queue packetRemoved:count 0
attr interpolationmode none
attr title "packets removed, count"
scalar TARPNetwork.node[2].wlan[0].mac.queue packetRemoved:sum(packetBytes) 0
attr interpolationmode none
attr title "packets removed, sum(packetBytes)"
scalar TARPNetwork.node[2].wlan[0].mac rcvdPkFromLl:count 434
attr interpolationmode none
attr source packetReceivedFromLower
attr title "packets received from lower layer, count"
scalar TARPNetwork.node[2].wlan[0].mac rcvdPkFromLl:sum(packetBytes) 449624
attr interpolationmode none
attr source packetReceivedFromLower
attr title "packets received from lower layer, sum(packetBytes)"
scalar TARPNetwork.node[2].wlan[0].mac sentDownPk:count 131
attr interpolationmode none
attr source packetSentToLower
attr title "packets sent to lower layer, count"
scalar TARPNetwork.node[2].wlan[0].mac sentDownPk:sum(packetBytes) 135716
attr interpolationmode none
attr source packetSentToLower
attr title "packets sent to lower layer, sum(packetBytes)"
scalar TARPNetwork.node[2].wlan[0].mac rcvdPkFromHl:count 131
attr interpolationmode none
attr source packetReceivedFromUpper
attr title "packets received from higher layer, count"
scalar TARPNetwork.node[2].wlan[0].mac rcvdPkFromHl:sum(packetBytes) 133620
attr interpolationmode none
attr source packetReceivedFromUpper
attr title "packets received from higher layer, sum(packetBytes)"
scalar TARPNetwork.node[2].wlan[0].mac passedUpPk:count 434
attr interpolationmode none
attr source packetSentToUpper
attr title "packets passed to higher layer, count"
scalar TARPNetwork.node[2].wlan[0].mac passedUpPk:sum(packetBytes) 442680
attr interpolationmode none
attr source packetSentToUpper
attr title "packets passed to higher layer, sum(packetBytes)"
scalar TARPNetwork.node[2].wlan[0].mac packetDropIncorrectlyReceived:count 0
attr interpolationmode none
attr source packetDropReasonIsIncorrectlyReceived(packetDropped)
attr title "packet drop: incorrectly received, count"
scalar TARPNetwork.node[2].wlan[0].mac packetDropIncorrectlyReceived:sum(packetBytes) 0
attr interpolationmode none
attr source packetDropReasonIsIncorrectlyReceived(packetDropped)
attr title "packet drop: incorrectly received, sum(packetBytes)"
scalar TARPNetwork.node[2].wlan[0].mac packetDropInterfaceDown:count 0
attr interpolationmode none
attr source packetDropReasonIsInterfaceDown(packetDropped)
attr title "packet drop: interface down, count"
scalar TARPNetwork.node[2].wlan[0].mac packetDropInterfaceDown:sum(packetBytes) 0
attr interpolationmode none
attr source packetDropReasonIsInterfaceDown(packetDropped)
attr title "packet drop: interface down, sum(packetBytes)"
scalar TARPNetwork.node[2].wlan[0].mac packetDropNotAddressedToUs:count 0
attr interpolationmode none
attr source packetDropReasonIsNotAddressedToUs(packetDropped)
attr title "packet drop: not addressed to us, count"
scalar TARPNetwork.node[2].wlan[0].mac packetDropNotAddressedToUs:sum(packetBytes) 0
attr interpolationmode none
attr source packetDropReasonIsNotAddressedToUs(packetDropped)
attr title "packet drop: not addressed to us, sum(packetBytes)"
scalar TARPNetwork.node[2].wlan[0].mac linkBroken:count 0
attr interpolationmode none
attr source linkBroken
attr title "link break, count"
statistic TARPNetwork.node[2].wlan[0].radio minSnir:histogram
field count 0
field mean nan
field stddev nan
field min nan
field max nan
field sum 0
field sqrsum 0
attr source minimumSnir(packetSentToUpper)
attr title "Min SNIR, histogram"
bin	-inf	0
bin	0	0
bin	1	0
statistic TARPNetwork.node[2].wlan[0].radio packetErrorRate:histogram
field count 434
field mean 0.75115207373272
field stddev 0.43284446150948
field min 0
field max 1
field sum 326
field sqrsum 326
attr source packetErrorRate(packetSentToUpper)
attr title "Packet error rate, histogram"
bin	-inf	0
bin	0	108
bin	1	326
bin	2	0
statistic TARPNetwork.node[2].wlan[0].radio bitErrorRate:histogram
field count 434
field mean 0.75115207373272
field stddev 0.43284446150948
field min 0
field max 1
field sum 326
field sqrsum 326
attr source bitErrorRate(packetSentToUpper)
attr title "Bit error rate, histogram"
bin	-inf	0
bin	0	108
bin	1	326
bin	2	0
statistic TARPNetwork.node[2].wlan[0].radio symbolErrorRate:histogram
field count 434
field mean 0.75115207373272
field stddev 0.43284446150948
field min 0
field max 1
field sum 326
field sqrsum 326
attr source symbolErrorRate(packetSentToUpper)
attr title "Symbol error rate, histogram"
bin	-inf	0
bin	0	108
bin	1	326
bin	2	0
scalar TARPNetwork.node[2].wlan[0].radio transmissionState:count 263
attr interpolationmode sample-hold
attr source transmissionStateChanged
attr title "Radio transmission state, count"
scalar TARPNetwork.node[2].wlan[0].radio receptionState:count 1083
attr interpolationmode sample-hold
attr source receptionStateChanged
attr title "Radio reception state, count"
scalar TARPNetwork.node[2].wlan[0].radio radioMode:count 3
attr interpolationmode sample-hold
attr source radioModeChanged
attr title "Radio mode, count"
scalar TARPNetwork.node[2].generic.np nbDataPacketsReceived 0
scalar TARPNetwork.node[2].generic.np nbDataPacketsSent 0
scalar TARPNetwork.node[2].generic.np nbDataPacketsForwarded 131
scalar TARPNetwork.node[2].generic.np meanNbHops 0
scalar TARPNetwork.node[2].generic.np nbSpdDrops 95
scalar TARPNetwork.node[2].udp packetReceived:count 0
attr interpolationmode none
attr source packetReceived
attr title "packets received, count"
scalar TARPNetwork.node[2].udp packetReceived:sum(packetBytes) 0
attr interpolationmode none
attr source packetReceived
attr title "packets received, sum(packetBytes)"
scalar TARPNetwork.node[2].udp packetSent:count 0
attr interpolationmode none
attr source packetSent
attr title "packets sent, count"
scalar TARPNetwork.node[2].udp packetSent:sum(packetBytes) 0
attr interpolationmode none
attr source packetSent
attr title "packets sent, sum(packetBytes)"
scalar TARPNetwork.node[2].udp passedUpPk:count 0
attr interpolationmode none
attr source packetSentToUpper
attr title "packets passed up, count"
scalar TARPNetwork.node[2].udp droppedPkWrongPort:count 0
attr interpolationmode none
attr source packetDropReasonIsNoPortFound(packetDropped)
attr title "packets dropped (wrong port), count"
scalar TARPNetwork.node[2].udp droppedPkBadChecksum:count 0
attr interpolationmode none
attr source packetDropReasonIsIncorrectlyReceived(packetDropped)
attr title "packets dropped (checksum error), count"
scalar TARPNetwork.node[3].lo[0].lo rcvdPkFromHl:count 0
attr interpolationmode none
attr source packetReceivedFromUpper
attr title "packets received from higher layer, count"
scalar TARPNetwork.node[3].lo[0].lo rcvdPkFromHl:sum(packetBytes) 0
attr interpolationmode none
attr source packetReceivedFromUpper
attr title "packets received from higher layer, sum(packetBytes)"
scalar TARPNetwork.node[3].lo[0].lo passedUpPk:count 0
attr interpolationmode none
attr source packetSentToUpper
attr title "packets passed to higher layer, count"
scalar TARPNetwork.node[3].lo[0].lo passedUpPk:sum(packetBytes) 0
attr interpolationmode none
attr source packetSentToUpper
attr title "packets passed to higher layer, sum(packetBytes)"
scalar TARPNetwork.node[3].wlan[0].mac.queue packetPopped:count 364
attr interpolationmode none
attr title "packet popped, count"
scalar TARPNetwork.node[3].wlan[0].mac.queue packetPopped:sum(packetBytes) 371280
attr interpolationmode none
attr title "packet popped, sum(packetBytes)"
statistic TARPNetwork.node[3].wlan[0].mac.queue queueingTime:histogram
field count 364
field mean 0
field stddev 0
field min 0
field max 0
field sum 0
field sqrsum 0
attr interpolationmode none
attr source queueingTime(packetPopped)
attr title "queueing times, histogram"
attr unit s
bin	-inf	0
bin	-0.5	0
bin	-0.48	0
bin	-0.46	0
bin	-0.44	0
bin	-0.42	0
bin	-0.4	0
bin	-0.38	0
bin	-0.36	0
bin	-0.34	0
bin	-0.32	0
bin	-0.3	0
bin	-0.28	0
bin	-0.26	0
bin	-0.24	0
bin	-0.22	0
bin	-0.2	0
bin	-0.18	0
bin	-0.16	0
bin	-0.14	0
bin	-0.12	0
bin	-0.1	0
bin	-0.08	0
bin	-0.06	0
bin	-0.04	0
bin	-0.02	0
bin	0	364
bin	0.02	0
bin	0.04	0
bin	0.06	0
bin	0.08	0
bin	0.1	0
bin	0.12	0
bin	0.14	0
bin	0.16	0
bin	0.18	0
bin	0.2	0
bin	0.22	0
bin	0.24	0
bin	0.26	0
bin	0.28	0
bin	0.3	0
bin	0.32	0
bin	0.34	0
bin	0.36	0
bin	0.38	0
bin	0.4	0
bin	0.42	0
bin	0.44	0
bin	0.46	0
bin	0.48	0
bin	0.5	0
scalar TARPNetwork.node[3].wlan[0].mac.queue queueLength:max 1
attr interpolationmode sample-hold
attr source "count(packetPushed) - count(packetPopped) - count(packetRemoved) - count(packetDropped)"
attr title "queue length, max"
scalar TARPNetwork.node[3].wlan[0].mac.queue queueLength:timeavg 0
attr interpolationmode sample-hold
attr source "count(packetPushed) - count(packetPopped) - count(packetRemoved) - count(packetDropped)"
attr title "queue length, timeavg"
scalar TARPNetwork.node[3].wlan[0].mac.queue packetPushed:count 364
attr interpolationmode none
attr title "packet pushed, count"
scalar TARPNetwork.node[3].wlan[0].mac.queue packetPushed:sum(packetBytes) 371280
attr interpolationmode none
attr title "packet pushed, sum(packetBytes)"
scalar TARPNetwork.node[3].wlan[0].mac.queue packetDropQueueOverflow:count 0
attr interpolationmode none
attr source packetDropReasonIsQueueOverflow(packetDropped)
attr title "packet drops: queue overflow, count"
scalar TARPNetwork.node[3].wlan[0].mac.queue packetDropQueueOverflow:sum(packetBytes) 0
attr interpolationmode none
attr source packetDropReasonIsQueueOverflow(packetDropped)
attr title "packet drops: queue overflow, sum(packetBytes)"
scalar TARPNetwork.node[3].wlan[0].mac.queue packetRemoved:count 0
attr interpolationmode none
attr title "packets removed, count"
scalar TARPNetwork.node[3].wlan[0].mac.queue packetRemoved:sum(packetBytes) 0
attr interpolationmode none
attr title "packets removed, sum(packetBytes)"
scalar TARPNetwork.node[3].wlan[0].mac rcvdPkFromLl:count 1008
attr interpolationmode none
attr source packetReceivedFromLower
attr title "packets received from lower layer, count"
scalar TARPNetwork.node[3].wlan[0].mac rcvdPkFromLl:sum(packetBytes) 1044288
attr interpolationmode none
attr source packetReceivedFromLower
attr title "packets received from lower layer, sum(packetBytes)"
scalar TARPNetwork.node[3].wlan[0].mac sentDownPk:count 364
attr interpolationmode none
attr source packetSentToLower
attr title "packets sent to lower layer, count"
scalar TARPNetwork.node[3].wlan[0].mac sentDownPk:sum(packetBytes) 377104
attr interpolationmode none
attr source packetSentToLower
attr title "packets sent to lower layer, sum(packetBytes)"
scalar TARPNetwork.node[3].wlan[0].mac rcvdPkFromHl:count 364
attr interpolationmode none
attr source packetReceivedFromUpper
attr title "packets received from higher layer, count"
scalar TARPNetwork.node[3].wlan[0].mac rcvdPkFromHl:sum(packetBytes) 371280
attr interpolationmode none
attr source packetReceivedFromUpper
attr title "packets received from higher layer, sum(packetBytes)"
scalar TARPNetwork.node[3].wlan[0].mac passedUpPk:count 1008
attr interpolationmode none
attr source packetSentToUpper
attr title "packets passed to higher layer, count"
scalar TARPNetwork.node[3].wlan[0].mac passedUpPk:sum(packetBytes) 1028160
attr interpolationmode none
attr source packetSentToUpper
attr title "packets passed to higher layer, sum(packetBytes)"
scalar TARPNetwork.node[3].wlan[0].mac packetDropIncorrectlyReceived:count 0
attr interpolationmode none
attr source packetDropReasonIsIncorrectlyReceived(packetDropped)
attr title "packet drop: incorrectly received, count"
scalar TARPNetwork.node[3].wlan[0].mac packetDropIncorrectlyReceived:sum(packetBytes) 0
attr interpolationmode none
attr source packetDropReasonIsIncorrectlyReceived(packetDropped)
attr title "packet drop: incorrectly received, sum(packetBytes)"
scalar TARPNetwork.node[3].wlan[0].mac packetDropInterfaceDown:count 0
attr interpolationmode none
attr source packetDropReasonIsInterfaceDown(packetDropped)
attr title "packet drop: interface down, count"
scalar TARPNetwork.node[3].wlan[0].mac packetDropInterfaceDown:sum(packetBytes) 0
attr interpolationmode none
attr source packetDropReasonIsInterfaceDown(packetDropped)
attr title "packet drop: interface down, sum(packetBytes)"
scalar TARPNetwork.node[3].wlan[0].mac packetDropNotAddressedToUs:count 0
attr interpolationmode none
attr source packetDropReasonIsNotAddressedToUs(packetDropped)
attr title "packet drop: not addressed to us, count"
scalar TARPNetwork.node[3].wlan[0].mac packetDropNotAddressedToUs:sum(packetBytes) 0
attr interpolationmode none
attr source packetDropReasonIsNotAddressedToUs(packetDropped)
attr title "packet drop: not addressed to us, sum(packetBytes)"
scalar TARPNetwork.node[3].wlan[0].mac linkBroken:count 0
attr interpolationmode none
attr source linkBroken
attr title "link break, count"
statistic TARPNetwork.node[3].wlan[0].radio minSnir:histogram
field count 0
field mean nan
field stddev nan
field min nan
field max nan
field sum 0
field sqrsum 0
attr source minimumSnir(packetSentToUpper)
attr title "Min SNIR, histogram"
bin	-inf	0
bin	0	0
bin	1	0
statistic TARPNetwork.node[3].wlan[0].radio packetErrorRate:histogram
field count 1008
field mean 0.65079365079365
field stddev 0.47695592708831
field min 0
field max 1
field sum 656
field sqrsum 656
attr source packetErrorRate(packetSentToUpper)
attr title "Packet error rate, histogram"
bin	-inf	0
bin	0	352
bin	1	656
bin	2	0
statistic TARPNetwork.node[3].wlan[0].radio bitErrorRate:histogram
field count 1008
field mean 0.65079365079365
field stddev 0.47695592708831
field min 0
field max 1
field sum 656
field sqrsum 656
attr source bitErrorRate(packetSentToUpper)
attr title "Bit error rate, histogram"
bin	-inf	0
bin	0	352
bin	1	656
bin	2	0
statistic TARPNetwork.node[3].wlan[0].radio symbolErrorRate:histogram
field count 1008
field mean 0.65079365079365
field stddev 0.47695592708831
field min 0
field max 1
field sum 656
field sqrsum 656
attr source symbolErrorRate(packetSentToUpper)
attr title "Symbol error rate, histogram"
bin	-inf	0
bin	0	352
bin	1	656
bin	2	0
scalar TARPNetwork.node[3].wlan[0].radio transmissionState:count 729
attr interpolationmode sample-hold
attr source transmissionStateChanged
attr title "Radio transmission state, count"
scalar TARPNetwork.node[3].wlan[0].radio receptionState:count 2484
attr interpolationmode sample-hold
attr source receptionStateChanged
attr title "Radio reception state, count"
scalar TARPNetwork.node[3].wlan[0].radio radioMode:count 3
attr interpolationmode sample-hold
attr source radioModeChanged
attr title "Radio mode, count"
scalar TARPNetwork.node[3].generic.np nbDataPacketsReceived 0
scalar TARPNetwork.node[3].generic.np nbDataPacketsSent 0
scalar TARPNetwork.node[3].generic.np nbDataPacketsForwarded 364
scalar TARPNetwork.node[3].generic.np meanNbHops 0
scalar TARPNetwork.node[3].generic.np nbSpdDrops 82
scalar TARPNetwork.node[3].udp packetReceived:count 0
attr interpolationmode none
attr source packetReceived
attr title "packets received, count"
scalar TARPNetwork.node[3].udp packetReceived:sum(packetBytes) 0
attr interpolationmode none
attr source packetReceived
attr title "packets received, sum(packetBytes)"
scalar TARPNetwork.node[3].udp packetSent:count 0
attr interpolationmode none
attr source packetSent
attr title "packets sent, count"
scalar TARPNetwork.node[3].udp packetSent:sum(packetBytes) 0
attr interpolationmode none
attr source packetSent
attr title "packets sent, sum(packetBytes)"
scalar TARPNetwork.node[3].udp passedUpPk:count 0
attr interpolationmode none
attr source packetSentToUpper
attr title "packets passed up, count"
scalar TARPNetwork.node[3].udp droppedPkWrongPort:count 0
attr interpolationmode none
attr source packetDropReasonIsNoPortFound(packetDropped)
attr title "packets dropped (wrong port), count"
scalar TARPNetwork.node[3].udp droppedPkBadChecksum:count 0
attr interpolationmode none
attr source packetDropReasonIsIncorrectlyReceived(packetDropped)
attr title "packets dropped (checksum error), count"
scalar TARPNetwork.node[4].lo[0].lo rcvdPkFromHl:count 0
attr interpolationmode none
attr source packetReceivedFromUpper
attr title "packets received from higher layer, count"
scalar TARPNetwork.node[4].lo[0].lo rcvdPkFromHl:sum(packetBytes) 0
attr interpolationmode none
attr source packetReceivedFromUpper
attr title "packets received from higher layer, sum(packetBytes)"
scalar TARPNetwork.node[4].lo[0].lo passedUpPk:count 0
attr interpolationmode none
attr source packetSentToUpper
attr title "packets passed to higher layer, count"
scalar TARPNetwork.node[4].lo[0].lo passedUpPk:sum(packetBytes) 0
attr interpolationmode none
attr source packetSentToUpper
attr title "packets passed to higher layer, sum(packetBytes)"
scalar TARPNetwork.node[4].wlan[0].mac.queue packetPopped:count 261
attr interpolationmode none
attr title "packet popped, count"
scalar TARPNetwork.node[4].wlan[0].mac.queue packetPopped:sum(packetBytes) 266220
attr interpolationmode none
attr title "packet popped, sum(packetBytes)"
statistic TARPNetwork.node[4].wlan[0].mac.queue queueingTime:histogram
field count 261
field mean 0
field stddev 0
field min 0
field max 0
field sum 0
field sqrsum 0
attr interpolationmode none
attr source queueingTime(packetPopped)
attr title "queueing times, histogram"
attr unit s
bin	-inf	0
bin	-0.5	0
bin	-0.48	0
bin	-0.46	0
bin	-0.44	0
bin	-0.42	0
bin	-0.4	0
bin	-0.38	0
bin	-0.36	0
bin	-0.34	0
bin	-0.32	0
bin	-0.3	0
bin	-0.28	0
bin	-0.26	0
bin	-0.24	0
bin	-0.22	0
bin	-0.2	0
bin	-0.18	0
bin	-0.16	0
bin	-0.14	0
bin	-0.12	0
bin	-0.1	0
bin	-0.08	0
bin	-0.06	0
bin	-0.04	0
bin	-0.02	0
bin	0	261
bin	0.02	0
bin	0.04	0
bin	0.06	0
bin	0.08	0
bin	0.1	0
bin	0.12	0
bin	0.14	0
bin	0.16	0
bin	0.18	0
bin	0.2	0
bin	0.22	0
bin	0.24	0
bin	0.26	0
bin	0.28	0
bin	0.3	0
bin	0.32	0
bin	0.34	0
bin	0.36	0
bin	0.38	0
bin	0.4	0
bin	0.42	0
bin	0.44	0
bin	0.46	0
bin	0.48	0
bin	0.5	0
scalar TARPNetwork.node[4].wlan[0].mac.queue queueLength:max 1
attr interpolationmode sample-hold
attr source "count(packetPushed) - count(packetPopped) - count(packetRemoved) - count(packetDropped)"
attr title "queue length, max"
scalar TARPNetwork.node[4].wlan[0].mac.queue queueLength:timeavg 0
attr interpolationmode sample-hold
attr source "count(packetPushed) - count(packetPopped) - count(packetRemoved) - count(packetDropped)"
attr title "queue length, timeavg"
scalar TARPNetwork.node[4].wlan[0].mac.queue packetPushed:count 261
attr interpolationmode none
attr title "packet pushed, count"
scalar TARPNetwork.node[4].wlan[0].mac.queue packetPushed:sum(packetBytes) 266220
attr interpolationmode none
attr title "packet pushed, sum(packetBytes)"
scalar TARPNetwork.node[4].wlan[0].mac.queue packetDropQueueOverflow:count 0
attr interpolationmode none
attr source packetDropReasonIsQueueOverflow(packetDropped)
attr title "packet drops: queue overflow, count"
scalar TARPNetwork.node[4].wlan[0].mac.queue packetDropQueueOverflow:sum(packetBytes) 0
attr interpolationmode none
attr source packetDropReasonIsQueueOverflow(packetDropped)
attr title "packet drops: queue overflow, sum(packetBytes)"
scalar TARPNetwork.node[4].wlan[0].mac.queue packetRemoved:count 0
attr interpolationmode none
attr title "packets removed, count"
scalar TARPNetwork.node[4].wlan[0].mac.queue packetRemoved:sum(packetBytes) 0
attr interpolationmode none
attr title "packets removed, sum(packetBytes)"
scalar TARPNetwork.node[4].wlan[0].mac rcvdPkFromLl:count 700
attr interpolationmode none
attr source packetReceivedFromLower
attr title "packets received from lower layer, count"
scalar TARPNetwork.node[4].wlan[0].mac rcvdPkFromLl:sum(packetBytes) 725200
attr interpolationmode none
attr source packetReceivedFromLower
attr title "packets received from lower layer, sum(packetBytes)"
scalar TARPNetwork.node[4].wlan[0].mac sentDownPk:count 261
attr interpolationmode none
attr source packetSentToLower
attr title "packets sent to lower layer, count"
scalar TARPNetwork.node[4].wlan[0].mac sentDownPk:sum(packetBytes) 270396
attr interpolationmode none
attr source packetSentToLower
attr title "packets sent to lower layer, sum(packetBytes)"
scalar TARPNetwork.node[4].wlan[0].mac rcvdPkFromHl:count 261
attr interpolationmode none
attr source packetReceivedFromUpper
attr title "packets received from higher layer, count"
scalar TARPNetwork.node[4].wlan[0].mac rcvdPkFromHl:sum(packetBytes) 266220
attr interpolationmode none
attr source packetReceivedFromUpper
attr title "packets received from higher layer, sum(packetBytes)"
scalar TARPNetwork.node[4].wlan[0].mac passedUpPk:count 700
attr interpolationmode none
attr source packetSentToUpper
attr title "packets passed to higher layer, count"
scalar TARPNetwork.node[4].wlan[0].mac passedUpPk:sum(packetBytes) 714000
attr interpolationmode none
attr source packetSentToUpper
attr title "packets passed to higher layer, sum(packetBytes)"
scalar TARPNetwork.node[4].wlan[0].mac packetDropIncorrectlyReceived:count 0
attr interpolationmode none
attr source packetDropReasonIsIncorrectlyReceived(packetDropped)
attr title "packet drop: incorrectly received, count"
scalar TARPNetwork.node[4].wlan[0].mac packetDropIncorrectlyReceived:sum(packetBytes) 0
attr interpolationmode none
attr source packetDropReasonIsIncorrectlyReceived(packetDropped)
attr title "packet drop: incorrectly received, sum(packetBytes)"
scalar TARPNetwork.node[4].wlan[0].mac packetDropInterfaceDown:count 0
attr interpolationmode none
attr source packetDropReasonIsInterfaceDown(packetDropped)
attr title "packet drop: interface down, count"
scalar TARPNetwork.node[4].wlan[0].mac packetDropInterfaceDown:sum(packetBytes) 0
attr interpolationmode none
attr source packetDropReasonIsInterfaceDown(packetDropped)
attr title "packet drop: interface down, sum(packetBytes)"
scalar TARPNetwork.node[4].wlan[0].mac packetDropNotAddressedToUs:count 0
attr interpolationmode none
attr source packetDropReasonIsNotAddressedToUs(packetDropped)
attr title "packet drop: not addressed to us, count"
scalar TARPNetwork.node[4].wlan[0].mac packetDropNotAddressedToUs:sum(packetBytes) 0
attr interpolationmode none
attr source packetDropReasonIsNotAddressedToUs(packetDropped)
attr title "packet drop: not addressed to us, sum(packetBytes)"
scalar TARPNetwork.node[4].wlan[0].mac linkBroken:count 0
attr interpolationmode none
attr source linkBroken
attr title "link break, count"
statistic TARPNetwork.node[4].wlan[0].radio minSnir:histogram
field count 0
field mean nan
field stddev nan
field min nan
field max nan
field sum 0
field sqrsum 0
attr source minimumSnir(packetSentToUpper)
attr title "Min SNIR, histogram"
bin	-inf	0
bin	0	0
bin	1	0
statistic TARPNetwork.node[4].wlan[0].radio packetErrorRate:histogram
field count 700
field mean 0.68
field stddev 0.46680970626134
field min 0
field max 1
field sum 476
field sqrsum 476
attr source packetErrorRate(packetSentToUpper)
attr title "Packet error rate, histogram"
bin	-inf	0
bin	0	224
bin	1	476
bin	2	0
statistic TARPNetwork.node[4].wlan[0].radio bitErrorRate:histogram
field count 700
field mean 0.68
field stddev 0.46680970626134
field min 0
field max 1
field sum 476
field sqrsum 476
attr source bitErrorRate(packetSentToUpper)
attr title "Bit error rate, histogram"
bin	-inf	0
bin	0	224
bin	1	476
bin	2	0
statistic TARPNetwork.node[4].wlan[0].radio symbolErrorRate:histogram
field count 700
field mean 0.68
field stddev 0.46680970626134
field min 0
field max 1
field sum 476
field sqrsum 476
attr source symbolErrorRate(packetSentToUpper)
attr title "Symbol error rate, histogram"
bin	-inf	0
bin	0	224
bin	1	476
bin	2	0
scalar TARPNetwork.node[4].wlan[0].radio transmissionState:count 523
attr interpolationmode sample-hold
attr source transmissionStateChanged
attr title "Radio transmission state, count"
scalar TARPNetwork.node[4].wlan[0].radio receptionState:count 1791
attr interpolationmode sample-hold
attr source receptionStateChanged
attr title "Radio reception state, count"
scalar TARPNetwork.node[4].wlan[0].radio radioMode:count 3
attr interpolationmode sample-hold
attr source radioModeChanged
attr title "Radio mode, count"
scalar TARPNetwork.node[4].generic.np nbDataPacketsReceived 0
scalar TARPNetwork.node[4].generic.np nbDataPacketsSent 0
scalar TARPNetwork.node[4].generic.np nbDataPacketsForwarded 261
scalar TARPNetwork.node[4].generic.np meanNbHops 0
scalar TARPNetwork.node[4].generic.np nbSpdDrops 35
scalar TARPNetwork.node[4].udp packetReceived:count 0
attr interpolationmode none
attr source packetReceived
attr title "packets received, count"
scalar TARPNetwork.node[4].udp packetReceived:sum(packetBytes) 0
attr interpolationmode none
attr source packetReceived
attr title "packets received, sum(packetBytes)"
scalar TARPNetwork.node[4].udp packetSent:count 0
attr interpolationmode none
attr source packetSent
attr title "packets sent, count"
scalar TARPNetwork.node[4].udp packetSent:sum(packetBytes) 0
attr interpolationmode none
attr source packetSent
attr title "packets sent, sum(packetBytes)"
scalar TARPNetwork.node[4].udp passedUpPk:count 0
attr interpolationmode none
attr source packetSentToUpper
attr title "packets passed up, count"
scalar TARPNetwork.node[4].udp droppedPkWrongPort:count 0
attr interpolationmode none
attr source packetDropReasonIsNoPortFound(packetDropped)
attr title "packets dropped (wrong port), count"
scalar TARPNetwork.node[4].udp droppedPkBadChecksum:count 0
attr interpolationmode none
attr source packetDropReasonIsIncorrectlyReceived(packetDropped)
attr title "packets dropped (checksum error), count"
scalar TARPNetwork.node[5].lo[0].lo rcvdPkFromHl:count 0
attr interpolationmode none
attr source packetReceivedFromUpper
attr title "packets received from higher layer, count"
scalar TARPNetwork.node[5].lo[0].lo rcvdPkFromHl:sum(packetBytes) 0
attr interpolationmode none
attr source packetReceivedFromUpper
attr title "packets received from higher layer, sum(packetBytes)"
scalar TARPNetwork.node[5].lo[0].lo passedUpPk:count 0
attr interpolationmode none
attr source packetSentToUpper
attr title "packets passed to higher layer, count"
scalar TARPNetwork.node[5].lo[0].lo passedUpPk:sum(packetBytes) 0
attr interpolationmode none
attr source packetSentToUpper
attr title "packets passed to higher layer, sum(packetBytes)"
scalar TARPNetwork.node[5].wlan[0].mac.queue packetPopped:count 229
attr interpolationmode none
attr title "packet popped, count"
scalar TARPNetwork.node[5].wlan[0].mac.queue packetPopped:sum(packetBytes) 233580
attr interpolationmode none
attr title "packet popped, sum(packetBytes)"
statistic TARPNetwork.node[5].wlan[0].mac.queue queueingTime:histogram
field count 229
field mean 0
field stddev 0
field min 0
field max 0
field sum 0
field sqrsum 0
attr interpolationmode none
attr source queueingTime(packetPopped)
attr title "queueing times, histogram"
attr unit s
bin	-inf	0
bin	-0.5	0
bin	-0.48	0
bin	-0.46	0
bin	-0.44	0
bin	-0.42	0
bin	-0.4	0
bin	-0.38	0
bin	-0.36	0
bin	-0.34	0
bin	-0.32	0
bin	-0.3	0
bin	-0.28	0
bin	-0.26	0
bin	-0.24	0
bin	-0.22	0
bin	-0.2	0
bin	-0.18	0
bin	-0.16	0
bin	-0.14	0
bin	-0.12	0
bin	-0.1	0
bin	-0.08	0
bin	-0.06	0
bin	-0.04	0
bin	-0.02	0
bin	0	229
bin	0.02	0
bin	0.04	0
bin	0.06	0
bin	0.08	0
bin	0.1	0
bin	0.12	0
bin	0.14	0
bin	0.16	0
bin	0.18	0
bin	0.2	0
bin	0.22	0
bin	0.24	0
bin	0.26	0
bin	0.28	0
bin	0.3	0
bin	0.32	0
bin	0.34	0
bin	0.36	0
bin	0.38	0
bin	0.4	0
bin	0.42	0
bin	0.44	0
bin	0.46	0
bin	0.48	0
bin	0.5	0
scalar TARPNetwork.node[5].wlan[0].mac.queue queueLength:max 1
attr interpolationmode sample-hold
attr source "count(packetPushed) - count(packetPopped) - count(packetRemoved) - count(packetDropped)"
attr title "queue length, max"
scalar TARPNetwork.node[5].wlan[0].mac.queue queueLength:timeavg 0
attr interpolationmode sample-hold
attr source "count(packetPushed) - count(packetPopped) - count(packetRemoved) - count(packetDropped)"
attr title "queue length, timeavg"
scalar TARPNetwork.node[5].wlan[0].mac.queue packetPushed:count 229
attr interpolationmode none
attr title "packet pushed, count"
scalar TARPNetwork.node[5].wlan[0].mac.queue packetPushed:sum(packetBytes) 233580
attr interpolationmode none
attr title "packet pushed, sum(packetBytes)"
scalar TARPNetwork.node[5].wlan[0].mac.queue packetDropQueueOverflow:count 0
attr interpolationmode none
attr source packetDropReasonIsQueueOverflow(packetDropped)
attr title "packet drops: queue overflow, count"
scalar TARPNetwork.node[5].wlan[0].mac.queue packetDropQueueOverflow:sum(packetBytes) 0
attr interpolationmode none
attr source packetDropReasonIsQueueOverflow(packetDropped)
attr title "packet drops: queue overflow, sum(packetBytes)"
scalar TARPNetwork.node[5].wlan[0].mac.queue packetRemoved:count 0
attr interpolationmode none
attr title "packets removed, count"
scalar TARPNetwork.node[5].wlan[0].mac.queue packetRemoved:sum(packetBytes) 0
attr interpolationmode none
attr title "packets removed, sum(packetBytes)"
scalar TARPNetwork.node[5].wlan[0].mac rcvdPkFromLl:count 586
attr interpolationmode none
attr source packetReceivedFromLower
attr title "packets received from lower layer, count"
scalar TARPNetwork.node[5].wlan[0].mac rcvdPkFromLl:sum(packetBytes) 607096
attr interpolationmode none
attr source packetReceivedFromLower
attr title "packets received from lower layer, sum(packetBytes)"
scalar TARPNetwork.node[5].wlan[0].mac sentDownPk:count 229
attr interpolationmode none
attr source packetSentToLower
attr title "packets sent to lower layer, count"
scalar TARPNetwork.node[5].wlan[0].mac sentDownPk:sum(packetBytes) 237244
attr interpolationmode none
attr source packetSentToLower
attr title "packets sent to lower layer, sum(packetBytes)"
scalar TARPNetwork.node[5].wlan[0].mac rcvdPkFromHl:count 229
attr interpolationmode none
attr source packetReceivedFromUpper
attr title "packets received from higher layer, count"
scalar TARPNetwork.node[5].wlan[0].mac rcvdPkFromHl:sum(packetBytes) 233580
attr interpolationmode none
attr source packetReceivedFromUpper
attr title "packets received from higher layer, sum(packetBytes)"
scalar TARPNetwork.node[5].wlan[0].mac passedUpPk:count 586
attr interpolationmode none
attr source packetSentToUpper
attr title "packets passed to higher layer, count"
scalar TARPNetwork.node[5].wlan[0].mac passedUpPk:sum(packetBytes) 597720
attr interpolationmode none
attr source packetSentToUpper
attr title "packets passed to higher layer, sum(packetBytes)"
scalar TARPNetwork.node[5].wlan[0].mac packetDropIncorrectlyReceived:count 0
attr interpolationmode none
attr source packetDropReasonIsIncorrectlyReceived(packetDropped)
attr title "packet drop: incorrectly received, count"
scalar TARPNetwork.node[5].wlan[0].mac packetDropIncorrectlyReceived:sum(packetBytes) 0
attr interpolationmode none
attr source packetDropReasonIsIncorrectlyReceived(packetDropped)
attr title "packet drop: incorrectly received, sum(packetBytes)"
scalar TARPNetwork.node[5].wlan[0].mac packetDropInterfaceDown:count 0
attr interpolationmode none
attr source packetDropReasonIsInterfaceDown(packetDropped)
attr title "packet drop: interface down, count"
scalar TARPNetwork.node[5].wlan[0].mac packetDropInterfaceDown:sum(packetBytes) 0
attr interpolationmode none
attr source packetDropReasonIsInterfaceDown(packetDropped)
attr title "packet drop: interface down, sum(packetBytes)"
scalar TARPNetwork.node[5].wlan[0].mac packetDropNotAddressedToUs:count 0
attr interpolationmode none
attr source packetDropReasonIsNotAddressedToUs(packetDropped)
attr title "packet drop: not addressed to us, count"
scalar TARPNetwork.node[5].wlan[0].mac packetDropNotAddressedToUs:sum(packetBytes) 0
attr interpolationmode none
attr source packetDropReasonIsNotAddressedToUs(packetDropped)
attr title "packet drop: not addressed to us, sum(packetBytes)"
scalar TARPNetwork.node[5].wlan[0].mac linkBroken:count 0
attr interpolationmode none
attr source linkBroken
attr title "link break, count"
statistic TARPNetwork.node[5].wlan[0].radio minSnir:histogram
field count 0
field mean nan
field stddev nan
field min nan
field max nan
field sum 0
field sqrsum 0
attr source minimumSnir(packetSentToUpper)
attr title "Min SNIR, histogram"
bin	-inf	0
bin	0	0
bin	1	0
statistic TARPNetwork.node[5].wlan[0].radio packetErrorRate:histogram
field count 586
field mean 0.74402730375427
field stddev 0.43677938565352
field min 0
field max 1
field sum 436
field sqrsum 436
attr source packetErrorRate(packetSentToUpper)
attr title "Packet error rate, histogram"
bin	-inf	0
bin	0	150
bin	1	436
bin	2	0
statistic TARPNetwork.node[5].wlan[0].radio bitErrorRate:histogram
field count 586
field mean 0.74402730375427
field stddev 0.43677938565352
field min 0
field max 1
field sum 436
field sqrsum 436
attr source bitErrorRate(packetSentToUpper)
attr title "Bit error rate, histogram"
bin	-inf	0
bin	0	150
bin	1	436
bin	2	0
statistic TARPNetwork.node[5].wlan[0].radio symbolErrorRate:histogram
field count 586
field mean 0.74402730375427
field stddev 0.43677938565352
field min 0
field max 1
field sum 436
field sqrsum 436
attr source symbolErrorRate(packetSentToUpper)
attr title "Symbol error rate, histogram"
bin	-inf	0
bin	0	150
bin	1	436
bin	2	0
scalar TARPNetwork.node[5].wlan[0].radio transmissionState:count 459
attr interpolationmode sample-hold
attr source transmissionStateChanged
attr title "Radio transmission state, count"
scalar TARPNetwork.node[5].wlan[0].radio receptionState:count 1443
attr interpolationmode sample-hold
attr source receptionStateChanged
attr title "Radio reception state, count"
scalar TARPNetwork.node[5].wlan[0].radio radioMode:count 3
attr interpolationmode sample-hold
attr source radioModeChanged
attr title "Radio mode, count"
scalar TARPNetwork.node[5].generic.np nbDataPacketsReceived 0
scalar TARPNetwork.node[5].generic.np nbDataPacketsSent 0
scalar TARPNetwork.node[5].generic.np nbDataPacketsForwarded 229
scalar TARPNetwork.node[5].generic.np meanNbHops 0
scalar TARPNetwork.node[5].generic.np nbSpdDrops 9
scalar TARPNetwork.node[5].udp packetReceived:count 0
attr interpolationmode none
attr source packetReceived
attr title "packets received, count"
scalar TARPNetwork.node[5].udp packetReceived:sum(packetBytes) 0
attr interpolationmode none
attr source packetReceived
attr title "packets received, sum(packetBytes)"
scalar TARPNetwork.node[5].udp packetSent:count 0
attr interpolationmode none
attr source packetSent
attr title "packets sent, count"
scalar TARPNetwork.node[5].udp packetSent:sum(packetBytes) 0
attr interpolationmode none
attr source packetSent
attr title "packets sent, sum(packetBytes)"
scalar TARPNetwork.node[5].udp passedUpPk:count 0
attr interpolationmode none
attr source packetSentToUpper
attr title "packets passed up, count"
scalar TARPNetwork.node[5].udp droppedPkWrongPort:count 0
attr interpolationmode none
attr source packetDropReasonIsNoPortFound(packetDropped)
attr title "packets dropped (wrong port), count"
scalar TARPNetwork.node[5].udp droppedPkBadChecksum:count 0
attr interpolationmode none
attr source packetDropReasonIsIncorrectlyReceived(packetDropped)
attr title "packets dropped (checksum error), count"
scalar TARPNetwork.node[6].lo[0].lo rcvdPkFromHl:count 0
attr interpolationmode none
attr source packetReceivedFromUpper
attr title "packets received from higher layer, count"
scalar TARPNetwork.node[6].lo[0].lo rcvdPkFromHl:sum(packetBytes) 0
attr interpolationmode none
attr source packetReceivedFromUpper
attr title "packets received from higher layer, sum(packetBytes)"
scalar TARPNetwork.node[6].lo[0].lo passedUpPk:count 0
attr interpolationmode none
attr source packetSentToUpper
attr title "packets passed to higher layer, count"
scalar TARPNetwork.node[6].lo[0].lo passedUpPk:sum(packetBytes) 0
attr interpolationmode none
attr source packetSentToUpper
attr title "packets passed to higher layer, sum(packetBytes)"
scalar TARPNetwork.node[6].wlan[0].mac.queue packetPopped:count 252
attr interpolationmode none
attr title "packet popped, count"
scalar TARPNetwork.node[6].wlan[0].mac.queue packetPopped:sum(packetBytes) 257040
attr interpolationmode none
attr title "packet popped, sum(packetBytes)"
statistic TARPNetwork.node[6].wlan[0].mac.queue queueingTime:histogram
field count 252
field mean 0
field stddev 0
field min 0
field max 0
field sum 0
field sqrsum 0
attr interpolationmode none
attr source queueingTime(packetPopped)
attr title "queueing times, histogram"
attr unit s
bin	-inf	0
bin	-0.5	0
bin	-0.48	0
bin	-0.46	0
bin	-0.44	0
bin	-0.42	0
bin	-0.4	0
bin	-0.38	0
bin	-0.36	0
bin	-0.34	0
bin	-0.32	0
bin	-0.3	0
bin	-0.28	0
bin	-0.26	0
bin	-0.24	0
bin	-0.22	0
bin	-0.2	0
bin	-0.18	0
bin	-0.16	0
bin	-0.14	0
bin	-0.12	0
bin	-0.1	0
bin	-0.08	0
bin	-0.06	0
bin	-0.04	0
bin	-0.02	0
bin	0	252
bin	0.02	0
bin	0.04	0
bin	0.06	0
bin	0.08	0
bin	0.1	0
bin	0.12	0
bin	0.14	0
bin	0.16	0
bin	0.18	0
bin	0.2	0
bin	0.22	0
bin	0.24	0
bin	0.26	0
bin	0.28	0
bin	0.3	0
bin	0.32	0
bin	0.34	0
bin	0.36	0
bin	0.38	0
bin	0.4	0
bin	0.42	0
bin	0.44	0
bin	0.46	0
bin	0.48	0
bin	0.5	0
scalar TARPNetwork.node[6].wlan[0].mac.queue queueLength:max 1
attr interpolationmode sample-hold
attr source "count(packetPushed) - count(packetPopped) - count(packetRemoved) - count(packetDropped)"
attr title "queue length, max"
scalar TARPNetwork.node[6].wlan[0].mac.queue queueLength:timeavg 0
attr interpolationmode sample-hold
attr source "count(packetPushed) - count(packetPopped) - count(packetRemoved) - count(packetDropped)"
attr title "queue length, timeavg"
scalar TARPNetwork.node[6].wlan[0].mac.queue packetPushed:count 252
attr interpolationmode none
attr title "packet pushed, count"
scalar TARPNetwork.node[6].wlan[0].mac.queue packetPushed:sum(packetBytes) 257040
attr interpolationmode none
attr title "packet pushed, sum(packetBytes)"
scalar TARPNetwork.node[6].wlan[0].mac.queue packetDropQueueOverflow:count 0
attr interpolationmode none
attr source packetDropReasonIsQueueOverflow(packetDropped)
attr title "packet drops: queue overflow, count"
scalar TARPNetwork.node[6].wlan[0].mac.queue packetDropQueueOverflow:sum(packetBytes) 0
attr interpolationmode none
attr source packetDropReasonIsQueueOverflow(packetDropped)
attr title "packet drops: queue overflow, sum(packetBytes)"
scalar TARPNetwork.node[6].wlan[0].mac.queue packetRemoved:count 0
attr interpolationmode none
attr title "packets removed, count"
scalar TARPNetwork.node[6].wlan[0].mac.queue packetRemoved:sum(packetBytes) 0
attr interpolationmode none
attr title "packets removed, sum(packetBytes)"
scalar TARPNetwork.node[6].wlan[0].mac rcvdPkFromLl:count 850
attr interpolationmode none
attr source packetReceivedFromLower
attr title "packets received from lower layer, count"
scalar TARPNetwork.node[6].wlan[0].mac rcvdPkFromLl:sum(packetBytes) 880600
attr interpolationmode none
attr source packetReceivedFromLower
attr title "packets received from lower layer, sum(packetBytes)"
scalar TARPNetwork.node[6].wlan[0].mac sentDownPk:count 252
attr interpolationmode none
attr source packetSentToLower
attr title "packets sent to lower layer, count"
scalar TARPNetwork.node[6].wlan[0].mac sentDownPk:sum(packetBytes) 261072
attr interpolationmode none
attr source packetSentToLower
attr title "packets sent to lower layer, sum(packetBytes)"
scalar TARPNetwork.node[6].wlan[0].mac rcvdPkFromHl:count 252
attr interpolationmode none
attr source packetReceivedFromUpper
attr title "packets received from higher layer, count"
scalar TARPNetwork.node[6].wlan[0].mac rcvdPkFromHl:sum(packetBytes) 257040
attr interpolationmode none
attr source packetReceivedFromUpper
attr title "packets received from higher layer, sum(packetBytes)"
scalar TARPNetwork.node[6].wlan[0].mac passedUpPk:count 850
attr interpolationmode none
attr source packetSentToUpper
attr title "packets passed to higher layer, count"
scalar TARPNetwork.node[6].wlan[0].mac passedUpPk:sum(packetBytes) 867000
attr interpolationmode none
attr source packetSentToUpper
attr title "packets passed to higher layer, sum(packetBytes)"
scalar TARPNetwork.node[6].wlan[0].mac packetDropIncorrectlyReceived:count 0
attr interpolationmode none
attr source packetDropReasonIsIncorrectlyReceived(packetDropped)
attr title "packet drop: incorrectly received, count"
scalar TARPNetwork.node[6].wlan[0].mac packetDropIncorrectlyReceived:sum(packetBytes) 0
attr interpolationmode none
attr source packetDropReasonIsIncorrectlyReceived(packetDropped)
attr title "packet drop: incorrectly received, sum(packetBytes)"
scalar TARPNetwork.node[6].wlan[0].mac packetDropInterfaceDown:count 0
attr interpolationmode none
attr source packetDropReasonIsInterfaceDown(packetDropped)
attr title "packet drop: interface down, count"
scalar TARPNetwork.node[6].wlan[0].mac packetDropInterfaceDown:sum(packetBytes) 0
attr interpolationmode none
attr source packetDropReasonIsInterfaceDown(packetDropped)
attr title "packet drop: interface down, sum(packetBytes)"
scalar TARPNetwork.node[6].wlan[0].mac packetDropNotAddressedToUs:count 0
attr interpolationmode none
attr source packetDropReasonIsNotAddressedToUs(packetDropped)
attr title "packet drop: not addressed to us, count"
scalar TARPNetwork.node[6].wlan[0].mac packetDropNotAddressedToUs:sum(packetBytes) 0
attr interpolationmode none
attr source packetDropReasonIsNotAddressedToUs(packetDropped)
attr title "packet drop: not addressed to us, sum(packetBytes)"
scalar TARPNetwork.node[6].wlan[0].mac linkBroken:count 0
attr interpolationmode none
attr source linkBroken
attr title "link break, count"
statistic TARPNetwork.node[6].wlan[0].radio minSnir:histogram
field count 0
field mean nan
field stddev nan
field min nan
field max nan
field sum 0
field sqrsum 0
attr source minimumSnir(packetSentToUpper)
attr title "Min SNIR, histogram"
bin	-inf	0
bin	0	0
bin	1	0
statistic TARPNetwork.node[6].wlan[0].radio packetErrorRate:histogram
field count 850
field mean 0.73529411764706
field stddev 0.44143621536822
field min 0
field max 1
field sum 625
field sqrsum 625
attr source packetErrorRate(packetSentToUpper)
attr title "Packet error rate, histogram"
bin	-inf	0
bin	0	225
bin	1	625
bin	2	0
statistic TARPNetwork.node[6].wlan[0].radio bitErrorRate:histogram
field count 850
field mean 0.73529411764706
field stddev 0.44143621536822
field min 0
field max 1
field sum 625
field sqrsum 625
attr source bitErrorRate(packetSentToUpper)
attr title "Bit error rate, histogram"
bin	-inf	0
bin	0	225
bin	1	625
bin	2	0
statistic TARPNetwork.node[6].wlan[0].radio symbolErrorRate:histogram
field count 850
field mean 0.73529411764706
field stddev 0.44143621536822
field min 0
field max 1
field sum 625
field sqrsum 625
attr source symbolErrorRate(packetSentToUpper)
attr title "Symbol error rate, histogram"
bin	-inf	0
bin	0	225
bin	1	625
bin	2	0
scalar TARPNetwork.node[6].wlan[0].radio transmissionState:count 505
attr interpolationmode sample-hold
attr source transmissionStateChanged
attr title "Radio transmission state, count"
scalar TARPNetwork.node[6].wlan[0].radio receptionState:count 2134
attr interpolationmode sample-hold
attr source receptionStateChanged
attr title "Radio reception state, count"
scalar TARPNetwork.node[6].wlan[0].radio radioMode:count 3
attr interpolationmode sample-hold
attr source radioModeChanged
attr title "Radio mode, count"
scalar TARPNetwork.node[6].generic.np nbDataPacketsReceived 0
scalar TARPNetwork.node[6].generic.np nbDataPacketsSent 0
scalar TARPNetwork.node[6].generic.np nbDataPacketsForwarded 252
scalar TARPNetwork.node[6].generic.np meanNbHops 0
scalar TARPNetwork.node[6].generic.np nbSpdDrops 123
scalar TARPNetwork.node[6].udp packetReceived:count 0
attr interpolationmode none
attr source packetReceived
attr title "packets received, count"
scalar TARPNetwork.node[6].udp packetReceived:sum(packetBytes) 0
attr interpolationmode none
attr source packetReceived
attr title "packets received, sum(packetBytes)"
scalar TARPNetwork.node[6].udp packetSent:count 0
attr interpolationmode none
attr source packetSent
attr title "packets sent, count"
scalar TARPNetwork.node[6].udp packetSent:sum(packetBytes) 0
attr interpolationmode none
attr source packetSent
attr title "packets sent, sum(packetBytes)"
scalar TARPNetwork.node[6].udp passedUpPk:count 0
attr interpolationmode none
attr source packetSentToUpper
attr title "packets passed up, count"
scalar TARPNetwork.node[6].udp droppedPkWrongPort:count 0
attr interpolationmode none
attr source packetDropReasonIsNoPortFound(packetDropped)
attr title "packets dropped (wrong port), count"
scalar TARPNetwork.node[6].udp droppedPkBadChecksum:count 0
attr interpolationmode none
attr source packetDropReasonIsIncorrectlyReceived(packetDropped)
attr title "packets dropped (checksum error), count"
scalar TARPNetwork.node[7].lo[0].lo rcvdPkFromHl:count 0
attr interpolationmode none
attr source packetReceivedFromUpper
attr title "packets received from higher layer, count"
scalar TARPNetwork.node[7].lo[0].lo rcvdPkFromHl:sum(packetBytes) 0
attr interpolationmode none
attr source packetReceivedFromUpper
attr title "packets received from higher layer, sum(packetBytes)"
scalar TARPNetwork.node[7].lo[0].lo passedUpPk:count 0
attr interpolationmode none
attr source packetSentToUpper
attr title "packets passed to higher layer, count"
scalar TARPNetwork.node[7].lo[0].lo passedUpPk:sum(packetBytes) 0
attr interpolationmode none
attr source packetSentToUpper
attr title "packets passed to higher layer, sum(packetBytes)"
scalar TARPNetwork.node[7].wlan[0].mac.queue packetPopped:count 211
attr interpolationmode none
attr title "packet popped, count"
scalar TARPNetwork.node[7].wlan[0].mac.queue packetPopped:sum(packetBytes) 215220
attr interpolationmode none
attr title "packet popped, sum(packetBytes)"
statistic TARPNetwork.node[7].wlan[0].mac.queue queueingTime:histogram
field count 211
field mean 0
field stddev 0
field min 0
field max 0
field sum 0
field sqrsum 0
attr interpolationmode none
attr source queueingTime(packetPopped)
attr title "queueing times, histogram"
attr unit s
bin	-inf	0
bin	-0.5	0
bin	-0.48	0
bin	-0.46	0
bin	-0.44	0
bin	-0.42	0
bin	-0.4	0
bin	-0.38	0
bin	-0.36	0
bin	-0.34	0
bin	-0.32	0
bin	-0.3	0
bin	-0.28	0
bin	-0.26	0
bin	-0.24	0
bin	-0.22	0
bin	-0.2	0
bin	-0.18	0
bin	-0.16	0
bin	-0.14	0
bin	-0.12	0
bin	-0.1	0
bin	-0.08	0
bin	-0.06	0
bin	-0.04	0
bin	-0.02	0
bin	0	211
bin	0.02	0
bin	0.04	0
bin	0.06	0
bin	0.08	0
bin	0.1	0
bin	0.12	0
bin	0.14	0
bin	0.16	0
bin	0.18	0
bin	0.2	0
bin	0.22	0
bin	0.24	0
bin	0.26	0
bin	0.28	0
bin	0.3	0
bin	0.32	0
bin	0.34	0
bin	0.36	0
bin	0.38	0
bin	0.4	0
bin	0.42	0
bin	0.44	0
bin	0.46	0
bin	0.48	0
bin	0.5	0
scalar TARPNetwork.node[7].wlan[0].mac.queue queueLength:max 1
attr interpolationmode sample-hold
attr source "count(packetPushed) - count(packetPopped) - count(packetRemoved) - count(packetDropped)"
attr title "queue length, max"
scalar TARPNetwork.node[7].wlan[0].mac.queue queueLength:timeavg 0
attr interpolationmode sample-hold
attr source "count(packetPushed) - count(packetPopped) - count(packetRemoved) - count(packetDropped)"
attr title "queue length, timeavg"
scalar TARPNetwork.node[7].wlan[0].mac.queue packetPushed:count 211
attr interpolationmode none
attr title "packet pushed, count"
scalar TARPNetwork.node[7].wlan[0].mac.queue packetPushed:sum(packetBytes) 215220
attr interpolationmode none
attr title "packet pushed, sum(packetBytes)"
scalar TARPNetwork.node[7].wlan[0].mac.queue packetDropQueueOverflow:count 0
attr interpolationmode none
attr source packetDropReasonIsQueueOverflow(packetDropped)
attr title "packet drops: queue overflow, count"
scalar TARPNetwork.node[7].wlan[0].mac.queue packetDropQueueOverflow:sum(packetBytes) 0
attr interpolationmode none
attr source packetDropReasonIsQueueOverflow(packetDropped)
attr title "packet drops: queue overflow, sum(packetBytes)"
scalar TARPNetwork.node[7].wlan[0].mac.queue packetRemoved:count 0
attr interpolationmode none
attr title "packets removed, count"
scalar TARPNetwork.node[7].wlan[0].mac.queue packetRemoved:sum(packetBytes) 0
attr interpolationmode none
attr title "packets removed, sum(packetBytes)"
scalar TARPNetwork.node[7].wlan[0].mac rcvdPkFromLl:count 642
attr interpolationmode none
attr source packetReceivedFromLower
attr title "packets received from lower layer, count"
scalar TARPNetwork.node[7].wlan[0].mac rcvdPkFromLl:sum(packetBytes) 665112
attr interpolationmode none
attr source packetReceivedFromLower
attr title "packets received from lower layer, sum(packetBytes)"
scalar TARPNetwork.node[7].wlan[0].mac sentDownPk:count 211
attr interpolationmode none
attr source packetSentToLower
attr title "packets sent to lower layer, count"
scalar TARPNetwork.node[7].wlan[0].mac sentDownPk:sum(packetBytes) 218596
attr interpolationmode none
attr source packetSentToLower
attr title "packets sent to lower layer, sum(packetBytes)"
scalar TARPNetwork.node[7].wlan[0].mac rcvdPkFromHl:count 211
attr interpolationmode none
attr source packetReceivedFromUpper
attr title "packets received from higher layer, count"
scalar TARPNetwork.node[7].wlan[0].mac rcvdPkFromHl:sum(packetBytes) 215220
attr interpolationmode none
attr source packetReceivedFromUpper
attr title "packets received from higher layer, sum(packetBytes)"
scalar TARPNetwork.node[7].wlan[0].mac passedUpPk:count 642
attr interpolationmode none
attr source packetSentToUpper
attr title "packets passed to higher layer, count"
scalar TARPNetwork.node[7].wlan[0].mac passedUpPk:sum(packetBytes) 654840
attr interpolationmode none
attr source packetSentToUpper
attr title "packets passed to higher layer, sum(packetBytes)"
scalar TARPNetwork.node[7].wlan[0].mac packetDropIncorrectlyReceived:count 0
attr interpolationmode none
attr source packetDropReasonIsIncorrectlyReceived(packetDropped)
attr title "packet drop: incorrectly received, count"
scalar TARPNetwork.node[7].wlan[0].mac packetDropIncorrectlyReceived:sum(packetBytes) 0
attr interpolationmode none
attr source packetDropReasonIsIncorrectlyReceived(packetDropped)
attr title "packet drop: incorrectly received, sum(packetBytes)"
scalar TARPNetwork.node[7].wlan[0].mac packetDropInterfaceDown:count 0
attr interpolationmode none
attr source packetDropReasonIsInterfaceDown(packetDropped)
attr title "packet drop: interface down, count"
scalar TARPNetwork.node[7].wlan[0].mac packetDropInterfaceDown:sum(packetBytes) 0
attr interpolationmode none
attr source packetDropReasonIsInterfaceDown(packetDropped)
attr title "packet drop: interface down, sum(packetBytes)"
scalar TARPNetwork.node[7].wlan[0].mac packetDropNotAddressedToUs:count 0
attr interpolationmode none
attr source packetDropReasonIsNotAddressedToUs(packetDropped)
attr title "packet drop: not addressed to us, count"
scalar TARPNetwork.node[7].wlan[0].mac packetDropNotAddressedToUs:sum(packetBytes) 0
attr interpolationmode none
attr source packetDropReasonIsNotAddressedToUs(packetDropped)
attr title "packet drop: not addressed to us, sum(packetBytes)"
scalar TARPNetwork.node[7].wlan[0].mac linkBroken:count 0
attr interpolationmode none
attr source linkBroken
attr title "link break, count"
statistic TARPNetwork.node[7].wlan[0].radio minSnir:histogram
field count 0
field mean nan
field stddev nan
field min nan
field max nan
field sum 0
field sqrsum 0
attr source minimumSnir(packetSentToUpper)
attr title "Min SNIR, histogram"
bin	-inf	0
bin	0	0
bin	1	0
statistic TARPNetwork.node[7].wlan[0].radio packetErrorRate:histogram
field count 642
field mean 0.44859813084112
field stddev 0.49773862772078
field min 0
field max 1
field sum 288
field sqrsum 288
attr source packetErrorRate(packetSentToUpper)
attr title "Packet error rate, histogram"
bin	-inf	0
bin	-0.5	0
bin	-0.48	0
bin	-0.46	0
bin	-0.44	0
bin	-0.42	0
bin	-0.4	0
bin	-0.38	0
bin	-0.36	0
bin	-0.34	0
bin	-0.32	0
bin	-0.3	0
bin	-0.28	0
bin	-0.26	0
bin	-0.24	0
bin	-0.22	0
bin	-0.2	0
bin	-0.18	0
bin	-0.16	0
bin	-0.14	0
bin	-0.12	0
bin	-0.1	0
bin	-0.08	0
bin	-0.06	0
bin	-0.04	0
bin	-0.02	0
bin	0	354
bin	0.02	0
bin	0.04	0
bin	0.06	0
bin	0.08	0
bin	0.1	0
bin	0.12	0
bin	0.14	0
bin	0.16	0
bin	0.18	0
bin	0.2	0
bin	0.22	0
bin	0.24	0
bin	0.26	0
bin	0.28	0
bin	0.3	0
bin	0.32	0
bin	0.34	0
bin	0.36	0
bin	0.38	0
bin	0.4	0
bin	0.42	0
bin	0.44	0
bin	0.46	0
bin	0.48	0
bin	0.5	0
bin	0.52	0
bin	0.54	0
bin	0.56	0
bin	0.58	0
bin	0.6	0
bin	0.62	0
bin	0.64	0
bin	0.66	0
bin	0.68	0
bin	0.7	0
bin	0.72	0
bin	0.74	0
bin	0.76	0
bin	0.78	0
bin	0.8	0
bin	0.82	0
bin	0.84	0
bin	0.86	0
bin	0.88	0
bin	0.9	0
bin	0.92	0
bin	0.94	0
bin	0.96	0
bin	0.98	0
bin	1	288
bin	1.02	0
statistic TARPNetwork.node[7].wlan[0].radio bitErrorRate:histogram
field count 642
field mean 0.44859813084112
field stddev 0.49773862772078
field min 0
field max 1
field sum 288
field sqrsum 288
attr source bitErrorRate(packetSentToUpper)
attr title "Bit error rate, histogram"
bin	-inf	0
bin	-0.5	0
bin	-0.48	0
bin	-0.46	0
bin	-0.44	0
bin	-0.42	0
bin	-0.4	0
bin	-0.38	0
bin	-0.36	0
bin	-0.34	0
bin	-0.32	0
bin	-0.3	0
bin	-0.28	0
bin	-0.26	0
bin	-0.24	0
bin	-0.22	0
bin	-0.2	0
bin	-0.18	0
bin	-0.16	0
bin	-0.14	0
bin	-0.12	0
bin	-0.1	0
bin	-0.08	0
bin	-0.06	0
bin	-0.04	0
bin	-0.02	0
bin	0	354
bin	0.02	0
bin	0.04	0
bin	0.06	0
bin	0.08	0
bin	0.1	0
bin	0.12	0
bin	0.14	0
bin	0.16	0
bin	0.18	0
bin	0.2	0
bin	0.22	0
bin	0.24	0
bin	0.26	0
bin	0.28	0
bin	0.3	0
bin	0.32	0
bin	0.34	0
bin	0.36	0
bin	0.38	0
bin	0.4	0
bin	0.42	0
bin	0.44	0
bin	0.46	0
bin	0.48	0
bin	0.5	0
bin	0.52	0
bin	0.54	0
bin	0.56	0
bin	0.58	0
bin	0.6	0
bin	0.62	0
bin	0.64	0
bin	0.66	0
bin	0.68	0
bin	0.7	0
bin	0.72	0
bin	0.74	0
bin	0.76	0
bin	0.78	0
bin	0.8	0
bin	0.82	0
bin	0.84	0
bin	0.86	0
bin	0.88	0
bin	0.9	0
bin	0.92	0
bin	0.94	0
bin	0.96	0
bin	0.98	0
bin	1	288
bin	1.02	0
statistic TARPNetwork.node[7].wlan[0].radio symbolErrorRate:histogram
field count 642
field mean 0.44859813084112
field stddev 0.49773862772078
field min 0
field max 1
field sum 288
field sqrsum 288
attr source symbolErrorRate(packetSentToUpper)
attr title "Symbol error rate, histogram"
bin	-inf	0
bin	-0.5	0
bin	-0.48	0
bin	-0.46	0
bin	-0.44	0
bin	-0.42	0
bin	-0.4	0
bin	-0.38	0
bin	-0.36	0
bin	-0.34	0
bin	-0.32	0
bin	-0.3	0
bin	-0.28	0
bin	-0.26	0
bin	-0.24	0
bin	-0.22	0
bin	-0.2	0
bin	-0.18	0
bin	-0.16	0
bin	-0.14	0
bin	-0.12	0
bin	-0.1	0
bin	-0.08	0
bin	-0.06	0
[...]
attr interpolationmode none
attr source packetSent
attr title "packets sent, count"
scalar TARPNetwork.node[37].udp packetSent:sum(packetBytes) 0
attr interpolationmode none
attr source packetSent
attr title "packets sent, sum(packetBytes)"
scalar TARPNetwork.node[37].udp passedUpPk:count 0
attr interpolationmode none
attr source packetSentToUpper
attr title "packets passed up, count"
scalar TARPNetwork.node[37].udp droppedPkWrongPort:count 0
attr interpolationmode none
attr source packetDropReasonIsNoPortFound(packetDropped)
attr title "packets dropped (wrong port), count"
scalar TARPNetwork.node[37].udp droppedPkBadChecksum:count 0
attr interpolationmode none
attr source packetDropReasonIsIncorrectlyReceived(packetDropped)
attr title "packets dropped (checksum error), count"
scalar TARPNetwork.node[38].lo[0].lo rcvdPkFromHl:count 0
attr interpolationmode none
attr source packetReceivedFromUpper
attr title "packets received from higher layer, count"
scalar TARPNetwork.node[38].lo[0].lo rcvdPkFromHl:sum(packetBytes) 0
attr interpolationmode none
attr source packetReceivedFromUpper
attr title "packets received from higher layer, sum(packetBytes)"
scalar TARPNetwork.node[38].lo[0].lo passedUpPk:count 0
attr interpolationmode none
attr source packetSentToUpper
attr title "packets passed to higher layer, count"
scalar TARPNetwork.node[38].lo[0].lo passedUpPk:sum(packetBytes) 0
attr interpolationmode none
attr source packetSentToUpper
attr title "packets passed to higher layer, sum(packetBytes)"
scalar TARPNetwork.node[38].wlan[0].mac.queue packetPopped:count 261
attr interpolationmode none
attr title "packet popped, count"
scalar TARPNetwork.node[38].wlan[0].mac.queue packetPopped:sum(packetBytes) 266220
attr interpolationmode none
attr title "packet popped, sum(packetBytes)"
statistic TARPNetwork.node[38].wlan[0].mac.queue queueingTime:histogram
field count 261
field mean 0
field stddev 0
field min 0
field max 0
field sum 0
field sqrsum 0
attr interpolationmode none
attr source queueingTime(packetPopped)
attr title "queueing times, histogram"
attr unit s
bin	-inf	0
bin	-0.5	0
bin	-0.48	0
bin	-0.46	0
bin	-0.44	0
bin	-0.42	0
bin	-0.4	0
bin	-0.38	0
bin	-0.36	0
bin	-0.34	0
bin	-0.32	0
bin	-0.3	0
bin	-0.28	0
bin	-0.26	0
bin	-0.24	0
bin	-0.22	0
bin	-0.2	0
bin	-0.18	0
bin	-0.16	0
bin	-0.14	0
bin	-0.12	0
bin	-0.1	0
bin	-0.08	0
bin	-0.06	0
bin	-0.04	0
bin	-0.02	0
bin	0	261
bin	0.02	0
bin	0.04	0
bin	0.06	0
bin	0.08	0
bin	0.1	0
bin	0.12	0
bin	0.14	0
bin	0.16	0
bin	0.18	0
bin	0.2	0
bin	0.22	0
bin	0.24	0
bin	0.26	0
bin	0.28	0
bin	0.3	0
bin	0.32	0
bin	0.34	0
bin	0.36	0
bin	0.38	0
bin	0.4	0
bin	0.42	0
bin	0.44	0
bin	0.46	0
bin	0.48	0
bin	0.5	0
scalar TARPNetwork.node[38].wlan[0].mac.queue queueLength:max 1
attr interpolationmode sample-hold
attr source "count(packetPushed) - count(packetPopped) - count(packetRemoved) - count(packetDropped)"
attr title "queue length, max"
scalar TARPNetwork.node[38].wlan[0].mac.queue queueLength:timeavg 0
attr interpolationmode sample-hold
attr source "count(packetPushed) - count(packetPopped) - count(packetRemoved) - count(packetDropped)"
attr title "queue length, timeavg"
scalar TARPNetwork.node[38].wlan[0].mac.queue packetPushed:count 261
attr interpolationmode none
attr title "packet pushed, count"
scalar TARPNetwork.node[38].wlan[0].mac.queue packetPushed:sum(packetBytes) 266220
attr interpolationmode none
attr title "packet pushed, sum(packetBytes)"
scalar TARPNetwork.node[38].wlan[0].mac.queue packetDropQueueOverflow:count 0
attr interpolationmode none
attr source packetDropReasonIsQueueOverflow(packetDropped)
attr title "packet drops: queue overflow, count"
scalar TARPNetwork.node[38].wlan[0].mac.queue packetDropQueueOverflow:sum(packetBytes) 0
attr interpolationmode none
attr source packetDropReasonIsQueueOverflow(packetDropped)
attr title "packet drops: queue overflow, sum(packetBytes)"
scalar TARPNetwork.node[38].wlan[0].mac.queue packetRemoved:count 0
attr interpolationmode none
attr title "packets removed, count"
scalar TARPNetwork.node[38].wlan[0].mac.queue packetRemoved:sum(packetBytes) 0
attr interpolationmode none
attr title "packets removed, sum(packetBytes)"
scalar TARPNetwork.node[38].wlan[0].mac rcvdPkFromLl:count 734
attr interpolationmode none
attr source packetReceivedFromLower
attr title "packets received from lower layer, count"
scalar TARPNetwork.node[38].wlan[0].mac rcvdPkFromLl:sum(packetBytes) 760424
attr interpolationmode none
attr source packetReceivedFromLower
attr title "packets received from lower layer, sum(packetBytes)"
scalar TARPNetwork.node[38].wlan[0].mac sentDownPk:count 261
attr interpolationmode none
attr source packetSentToLower
attr title "packets sent to lower layer, count"
scalar TARPNetwork.node[38].wlan[0].mac sentDownPk:sum(packetBytes) 270396
attr interpolationmode none
attr source packetSentToLower
attr title "packets sent to lower layer, sum(packetBytes)"
scalar TARPNetwork.node[38].wlan[0].mac rcvdPkFromHl:count 261
attr interpolationmode none
attr source packetReceivedFromUpper
attr title "packets received from higher layer, count"
scalar TARPNetwork.node[38].wlan[0].mac rcvdPkFromHl:sum(packetBytes) 266220
attr interpolationmode none
attr source packetReceivedFromUpper
attr title "packets received from higher layer, sum(packetBytes)"
scalar TARPNetwork.node[38].wlan[0].mac passedUpPk:count 734
attr interpolationmode none
attr source packetSentToUpper
attr title "packets passed to higher layer, count"
scalar TARPNetwork.node[38].wlan[0].mac passedUpPk:sum(packetBytes) 748680
attr interpolationmode none
attr source packetSentToUpper
attr title "packets passed to higher layer, sum(packetBytes)"
scalar TARPNetwork.node[38].wlan[0].mac packetDropIncorrectlyReceived:count 0
attr interpolationmode none
attr source packetDropReasonIsIncorrectlyReceived(packetDropped)
attr title "packet drop: incorrectly received, count"
scalar TARPNetwork.node[38].wlan[0].mac packetDropIncorrectlyReceived:sum(packetBytes) 0
attr interpolationmode none
attr source packetDropReasonIsIncorrectlyReceived(packetDropped)
attr title "packet drop: incorrectly received, sum(packetBytes)"
scalar TARPNetwork.node[38].wlan[0].mac packetDropInterfaceDown:count 0
attr interpolationmode none
attr source packetDropReasonIsInterfaceDown(packetDropped)
attr title "packet drop: interface down, count"
scalar TARPNetwork.node[38].wlan[0].mac packetDropInterfaceDown:sum(packetBytes) 0
attr interpolationmode none
attr source packetDropReasonIsInterfaceDown(packetDropped)
attr title "packet drop: interface down, sum(packetBytes)"
scalar TARPNetwork.node[38].wlan[0].mac packetDropNotAddressedToUs:count 0
attr interpolationmode none
attr source packetDropReasonIsNotAddressedToUs(packetDropped)
attr title "packet drop: not addressed to us, count"
scalar TARPNetwork.node[38].wlan[0].mac packetDropNotAddressedToUs:sum(packetBytes) 0
attr interpolationmode none
attr source packetDropReasonIsNotAddressedToUs(packetDropped)
attr title "packet drop: not addressed to us, sum(packetBytes)"
scalar TARPNetwork.node[38].wlan[0].mac linkBroken:count 0
attr interpolationmode none
attr source linkBroken
attr title "link break, count"
statistic TARPNetwork.node[38].wlan[0].radio minSnir:histogram
field count 0
field mean nan
field stddev nan
field min nan
field max nan
field sum 0
field sqrsum 0
attr source minimumSnir(packetSentToUpper)
attr title "Min SNIR, histogram"
bin	-inf	0
bin	0	0
bin	1	0
statistic TARPNetwork.node[38].wlan[0].radio packetErrorRate:histogram
field count 734
field mean 0.70299727520436
field stddev 0.45724933268796
field min 0
field max 1
field sum 516
field sqrsum 516
attr source packetErrorRate(packetSentToUpper)
attr title "Packet error rate, histogram"
bin	-inf	0
bin	0	218
bin	1	516
bin	2	0
statistic TARPNetwork.node[38].wlan[0].radio bitErrorRate:histogram
field count 734
field mean 0.70299727520436
field stddev 0.45724933268796
field min 0
field max 1
field sum 516
field sqrsum 516
attr source bitErrorRate(packetSentToUpper)
attr title "Bit error rate, histogram"
bin	-inf	0
bin	0	218
bin	1	516
bin	2	0
statistic TARPNetwork.node[38].wlan[0].radio symbolErrorRate:histogram
field count 734
field mean 0.70299727520436
field stddev 0.45724933268796
field min 0
field max 1
field sum 516
field sqrsum 516
attr source symbolErrorRate(packetSentToUpper)
attr title "Symbol error rate, histogram"
bin	-inf	0
bin	0	218
bin	1	516
bin	2	0
scalar TARPNetwork.node[38].wlan[0].radio transmissionState:count 523
attr interpolationmode sample-hold
attr source transmissionStateChanged
attr title "Radio transmission state, count"
scalar TARPNetwork.node[38].wlan[0].radio receptionState:count 1845
attr interpolationmode sample-hold
attr source receptionStateChanged
attr title "Radio reception state, count"
scalar TARPNetwork.node[38].wlan[0].radio radioMode:count 3
attr interpolationmode sample-hold
attr source radioModeChanged
attr title "Radio mode, count"
scalar TARPNetwork.node[38].generic.np nbDataPacketsReceived 0
scalar TARPNetwork.node[38].generic.np nbDataPacketsSent 0
scalar TARPNetwork.node[38].generic.np nbDataPacketsForwarded 261
scalar TARPNetwork.node[38].generic.np meanNbHops 0
scalar TARPNetwork.node[38].generic.np nbSpdDrops 29
scalar TARPNetwork.node[38].udp packetReceived:count 0
attr interpolationmode none
attr source packetReceived
attr title "packets received, count"
scalar TARPNetwork.node[38].udp packetReceived:sum(packetBytes) 0
attr interpolationmode none
attr source packetReceived
attr title "packets received, sum(packetBytes)"
scalar TARPNetwork.node[38].udp packetSent:count 0
attr interpolationmode none
attr source packetSent
attr title "packets sent, count"
scalar TARPNetwork.node[38].udp packetSent:sum(packetBytes) 0
attr interpolationmode none
attr source packetSent
attr title "packets sent, sum(packetBytes)"
scalar TARPNetwork.node[38].udp passedUpPk:count 0
attr interpolationmode none
attr source packetSentToUpper
attr title "packets passed up, count"
scalar TARPNetwork.node[38].udp droppedPkWrongPort:count 0
attr interpolationmode none
attr source packetDropReasonIsNoPortFound(packetDropped)
attr title "packets dropped (wrong port), count"
scalar TARPNetwork.node[38].udp droppedPkBadChecksum:count 0
attr interpolationmode none
attr source packetDropReasonIsIncorrectlyReceived(packetDropped)
attr title "packets dropped (checksum error), count"
scalar TARPNetwork.node[39].lo[0].lo rcvdPkFromHl:count 0
attr interpolationmode none
attr source packetReceivedFromUpper
attr title "packets received from higher layer, count"
scalar TARPNetwork.node[39].lo[0].lo rcvdPkFromHl:sum(packetBytes) 0
attr interpolationmode none
attr source packetReceivedFromUpper
attr title "packets received from higher layer, sum(packetBytes)"
scalar TARPNetwork.node[39].lo[0].lo passedUpPk:count 0
attr interpolationmode none
attr source packetSentToUpper
attr title "packets passed to higher layer, count"
scalar TARPNetwork.node[39].lo[0].lo passedUpPk:sum(packetBytes) 0
attr interpolationmode none
attr source packetSentToUpper
attr title "packets passed to higher layer, sum(packetBytes)"
scalar TARPNetwork.node[39].wlan[0].mac.queue packetPopped:count 324
attr interpolationmode none
attr title "packet popped, count"
scalar TARPNetwork.node[39].wlan[0].mac.queue packetPopped:sum(packetBytes) 330480
attr interpolationmode none
attr title "packet popped, sum(packetBytes)"
statistic TARPNetwork.node[39].wlan[0].mac.queue queueingTime:histogram
field count 324
field mean 0
field stddev 0
field min 0
field max 0
field sum 0
field sqrsum 0
attr interpolationmode none
attr source queueingTime(packetPopped)
attr title "queueing times, histogram"
attr unit s
bin	-inf	0
bin	-0.5	0
bin	-0.48	0
bin	-0.46	0
bin	-0.44	0
bin	-0.42	0
bin	-0.4	0
bin	-0.38	0
bin	-0.36	0
bin	-0.34	0
bin	-0.32	0
bin	-0.3	0
bin	-0.28	0
bin	-0.26	0
bin	-0.24	0
bin	-0.22	0
bin	-0.2	0
bin	-0.18	0
bin	-0.16	0
bin	-0.14	0
bin	-0.12	0
bin	-0.1	0
bin	-0.08	0
bin	-0.06	0
bin	-0.04	0
bin	-0.02	0
bin	0	324
bin	0.02	0
bin	0.04	0
bin	0.06	0
bin	0.08	0
bin	0.1	0
bin	0.12	0
bin	0.14	0
bin	0.16	0
bin	0.18	0
bin	0.2	0
bin	0.22	0
bin	0.24	0
bin	0.26	0
bin	0.28	0
bin	0.3	0
bin	0.32	0
bin	0.34	0
bin	0.36	0
bin	0.38	0
bin	0.4	0
bin	0.42	0
bin	0.44	0
bin	0.46	0
bin	0.48	0
bin	0.5	0
scalar TARPNetwork.node[39].wlan[0].mac.queue queueLength:max 1
attr interpolationmode sample-hold
attr source "count(packetPushed) - count(packetPopped) - count(packetRemoved) - count(packetDropped)"
attr title "queue length, max"
scalar TARPNetwork.node[39].wlan[0].mac.queue queueLength:timeavg 0
attr interpolationmode sample-hold
attr source "count(packetPushed) - count(packetPopped) - count(packetRemoved) - count(packetDropped)"
attr title "queue length, timeavg"
scalar TARPNetwork.node[39].wlan[0].mac.queue packetPushed:count 324
attr interpolationmode none
attr title "packet pushed, count"
scalar TARPNetwork.node[39].wlan[0].mac.queue packetPushed:sum(packetBytes) 330480
attr interpolationmode none
attr title "packet pushed, sum(packetBytes)"
scalar TARPNetwork.node[39].wlan[0].mac.queue packetDropQueueOverflow:count 0
attr interpolationmode none
attr source packetDropReasonIsQueueOverflow(packetDropped)
attr title "packet drops: queue overflow, count"
scalar TARPNetwork.node[39].wlan[0].mac.queue packetDropQueueOverflow:sum(packetBytes) 0
attr interpolationmode none
attr source packetDropReasonIsQueueOverflow(packetDropped)
attr title "packet drops: queue overflow, sum(packetBytes)"
scalar TARPNetwork.node[39].wlan[0].mac.queue packetRemoved:count 0
attr interpolationmode none
attr title "packets removed, count"
scalar TARPNetwork.node[39].wlan[0].mac.queue packetRemoved:sum(packetBytes) 0
attr interpolationmode none
attr title "packets removed, sum(packetBytes)"
scalar TARPNetwork.node[39].wlan[0].mac rcvdPkFromLl:count 938
attr interpolationmode none
attr source packetReceivedFromLower
attr title "packets received from lower layer, count"
scalar TARPNetwork.node[39].wlan[0].mac rcvdPkFromLl:sum(packetBytes) 971768
attr interpolationmode none
attr source packetReceivedFromLower
attr title "packets received from lower layer, sum(packetBytes)"
scalar TARPNetwork.node[39].wlan[0].mac sentDownPk:count 324
attr interpolationmode none
attr source packetSentToLower
attr title "packets sent to lower layer, count"
scalar TARPNetwork.node[39].wlan[0].mac sentDownPk:sum(packetBytes) 335664
attr interpolationmode none
attr source packetSentToLower
attr title "packets sent to lower layer, sum(packetBytes)"
scalar TARPNetwork.node[39].wlan[0].mac rcvdPkFromHl:count 324
attr interpolationmode none
attr source packetReceivedFromUpper
attr title "packets received from higher layer, count"
scalar TARPNetwork.node[39].wlan[0].mac rcvdPkFromHl:sum(packetBytes) 330480
attr interpolationmode none
attr source packetReceivedFromUpper
attr title "packets received from higher layer, sum(packetBytes)"
scalar TARPNetwork.node[39].wlan[0].mac passedUpPk:count 938
attr interpolationmode none
attr source packetSentToUpper
attr title "packets passed to higher layer, count"
scalar TARPNetwork.node[39].wlan[0].mac passedUpPk:sum(packetBytes) 956760
attr interpolationmode none
attr source packetSentToUpper
attr title "packets passed to higher layer, sum(packetBytes)"
scalar TARPNetwork.node[39].wlan[0].mac packetDropIncorrectlyReceived:count 0
attr interpolationmode none
attr source packetDropReasonIsIncorrectlyReceived(packetDropped)
attr title "packet drop: incorrectly received, count"
scalar TARPNetwork.node[39].wlan[0].mac packetDropIncorrectlyReceived:sum(packetBytes) 0
attr interpolationmode none
attr source packetDropReasonIsIncorrectlyReceived(packetDropped)
attr title "packet drop: incorrectly received, sum(packetBytes)"
scalar TARPNetwork.node[39].wlan[0].mac packetDropInterfaceDown:count 0
attr interpolationmode none
attr source packetDropReasonIsInterfaceDown(packetDropped)
attr title "packet drop: interface down, count"
scalar TARPNetwork.node[39].wlan[0].mac packetDropInterfaceDown:sum(packetBytes) 0
attr interpolationmode none
attr source packetDropReasonIsInterfaceDown(packetDropped)
attr title "packet drop: interface down, sum(packetBytes)"
scalar TARPNetwork.node[39].wlan[0].mac packetDropNotAddressedToUs:count 0
attr interpolationmode none
attr source packetDropReasonIsNotAddressedToUs(packetDropped)
attr title "packet drop: not addressed to us, count"
scalar TARPNetwork.node[39].wlan[0].mac packetDropNotAddressedToUs:sum(packetBytes) 0
attr interpolationmode none
attr source packetDropReasonIsNotAddressedToUs(packetDropped)
attr title "packet drop: not addressed to us, sum(packetBytes)"
scalar TARPNetwork.node[39].wlan[0].mac linkBroken:count 0
attr interpolationmode none
attr source linkBroken
attr title "link break, count"
statistic TARPNetwork.node[39].wlan[0].radio minSnir:histogram
field count 0
field mean nan
field stddev nan
field min nan
field max nan
field sum 0
field sqrsum 0
attr source minimumSnir(packetSentToUpper)
attr title "Min SNIR, histogram"
bin	-inf	0
bin	0	0
bin	1	0
statistic TARPNetwork.node[39].wlan[0].radio packetErrorRate:histogram
field count 938
field mean 0.83475479744136
field stddev 0.37159983756444
field min 0
field max 1
field sum 783
field sqrsum 783
attr source packetErrorRate(packetSentToUpper)
attr title "Packet error rate, histogram"
bin	-inf	0
bin	0	155
bin	1	783
bin	2	0
statistic TARPNetwork.node[39].wlan[0].radio bitErrorRate:histogram
field count 938
field mean 0.83475479744136
field stddev 0.37159983756444
field min 0
field max 1
field sum 783
field sqrsum 783
attr source bitErrorRate(packetSentToUpper)
attr title "Bit error rate, histogram"
bin	-inf	0
bin	0	155
bin	1	783
bin	2	0
statistic TARPNetwork.node[39].wlan[0].radio symbolErrorRate:histogram
field count 938
field mean 0.83475479744136
field stddev 0.37159983756444
field min 0
field max 1
field sum 783
field sqrsum 783
attr source symbolErrorRate(packetSentToUpper)
attr title "Symbol error rate, histogram"
bin	-inf	0
bin	0	155
bin	1	783
bin	2	0
scalar TARPNetwork.node[39].wlan[0].radio transmissionState:count 649
attr interpolationmode sample-hold
attr source transmissionStateChanged
attr title "Radio transmission state, count"
scalar TARPNetwork.node[39].wlan[0].radio receptionState:count 2370
attr interpolationmode sample-hold
attr source receptionStateChanged
attr title "Radio reception state, count"
scalar TARPNetwork.node[39].wlan[0].radio radioMode:count 3
attr interpolationmode sample-hold
attr source radioModeChanged
attr title "Radio mode, count"
scalar TARPNetwork.node[39].generic.np nbDataPacketsReceived 0
scalar TARPNetwork.node[39].generic.np nbDataPacketsSent 0
scalar TARPNetwork.node[39].generic.np nbDataPacketsForwarded 324
scalar TARPNetwork.node[39].generic.np meanNbHops 0
scalar TARPNetwork.node[39].generic.np nbSpdDrops 65
scalar TARPNetwork.node[39].udp packetReceived:count 0
attr interpolationmode none
attr source packetReceived
attr title "packets received, count"
scalar TARPNetwork.node[39].udp packetReceived:sum(packetBytes) 0
attr interpolationmode none
attr source packetReceived
attr title "packets received, sum(packetBytes)"
scalar TARPNetwork.node[39].udp packetSent:count 0
attr interpolationmode none
attr source packetSent
attr title "packets sent, count"
scalar TARPNetwork.node[39].udp packetSent:sum(packetBytes) 0
attr interpolationmode none
attr source packetSent
attr title "packets sent, sum(packetBytes)"
scalar TARPNetwork.node[39].udp passedUpPk:count 0
attr interpolationmode none
attr source packetSentToUpper
attr title "packets passed up, count"
scalar TARPNetwork.node[39].udp droppedPkWrongPort:count 0
attr interpolationmode none
attr source packetDropReasonIsNoPortFound(packetDropped)
attr title "packets dropped (wrong port), count"
scalar TARPNetwork.node[39].udp droppedPkBadChecksum:count 0
attr interpolationmode none
attr source packetDropReasonIsIncorrectlyReceived(packetDropped)
attr title "packets dropped (checksum error), count"

