version 2
run Static-0-20211008-00:33:23-19336
attr configname Static
attr datetime 20211008-00:33:23
attr experiment Static
attr inifile omnetpp.ini
attr iterationvars ""
attr iterationvarsf ""
attr measurement ""
attr network TARPNetwork
attr processid 19336
attr repetition 0
attr replication #0
attr resultdir results
attr runnumber 0
attr seedset 0
param **.node[*].mobility.typename "\"StationaryMobility\""
param **.mobility.constraintAreaMinZ 0m
param **.mobility.constraintAreaMaxZ 0m
param **.mobility.constraintAreaMinX 0m
param **.mobility.constraintAreaMinY 0m
param **.mobility.constraintAreaMaxX 500m
param **.mobility.constraintAreaMaxY 500m
param **.numNodes 60
param *.node*.typename "\"Node\""
param *.node[17].numApps 1
param *.node[17].app[0].typename "\"UdpBasicApp\""
param *.node[17].app[0].destAddresses "\"node[22]\""
param *.node[17].app[0].destPort 5000
param *.node[17].app[0].messageLength 1000B
param *.node[17].app[0].sendInterval 1s
param *.node[17].app[0].packetName "\"UDPData\""
param *.node[22].numApps 1
param *.node[22].app[0].typename "\"UdpEchoApp\""
param *.node[22].app[0].localPort 5000
param **.wlan[*].typename "\"AckingWirelessInterface\""
param **.bitrate 1Mbps
param **.wlan[*].radio.transmitter.communicationRange 100m
param **.wlan[*].radio.transmitter.interferenceRange 0m
param **.wlan[*].radio.transmitter.detectionRange 0m
param **.wlan[*].radio.receiver.ignoreInterference true
param *.visualizer.sceneVisualizer.descriptionFigure "\"title\""
param *.node[17].wlan[0].radio.displayCommunicationRange true
param *.node[22].wlan[0].radio.displayCommunicationRange true
param *.visualizer.physicalLinkVisualizer.displayLinks false
param *.visualizer.dataLinkVisualizer.displayLinks false
param *.visualizer.networkRouteVisualizer.displayRoutes false
param *.visualizer.*LinkVisualizer.lineShift 0
param *.visualizer.networkRouteVisualizer.lineShift 0
param *.visualizer.networkRouteVisualizer.packetFilter "\"TARP*\""
param *.visualizer.mediumVisualizer.displaySignalDepartures true
param **.hasIpv4 false
param **.hasIpv6 false
param **.hasGn true
param **.forwarding true
param **.generic.typename "\"SimpleNetworkLayer\""
param **.generic.np.typename "\"TarpF\""
param **.app[*].networkProtocol "\"tarpf\""
param **.plainFlooding true
param **.ddMaxEntries 100
param **.ddDelTime 100s
param **.spdRule true
param **.spdDelTime 30s
param **.slack 2

scalar TARPNetwork.radioMedium.propagation "Arrival computation count" 1012145
scalar TARPNetwork.radioMedium "transmission count" 17155
scalar TARPNetwork.radioMedium "signal send count" 1012145
scalar TARPNetwork.radioMedium "reception computation count" 1012086
scalar TARPNetwork.radioMedium "interference computation count" 2548969
scalar TARPNetwork.radioMedium "reception decision computation count" 49643
scalar TARPNetwork.radioMedium "listening decision computation count" 1487240
scalar TARPNetwork.radioMedium "reception cache hit" 95.074318183201
attr unit %
scalar TARPNetwork.radioMedium "interference cache hit" 66.666666666667
attr unit %
scalar TARPNetwork.radioMedium "noise cache hit" 0
attr unit %
scalar TARPNetwork.radioMedium "snir cache hit" 50
attr unit %
scalar TARPNetwork.radioMedium "reception decision cache hit" 50
attr unit %
scalar TARPNetwork.radioMedium "reception result cache hit" 0
attr unit %
scalar TARPNetwork.node[0].lo[0].lo rcvdPkFromHl:count 0
attr interpolationmode none
attr source packetReceivedFromUpper
attr title "packets received from higher layer, count"
scalar TARPNetwork.node[0].lo[0].lo rcvdPkFromHl:sum(packetBytes) 0
attr interpolationmode none
attr source packetReceivedFromUpper
attr title "packets received from higher layer, sum(packetBytes)"
scalar TARPNetwork.node[0].lo[0].lo passedUpPk:count 0
attr interpolationmode none
attr source packetSentToUpper
attr title "packets passed to higher layer, count"
scalar TARPNetwork.node[0].lo[0].lo passedUpPk:sum(packetBytes) 0
attr interpolationmode none
attr source packetSentToUpper
attr title "packets passed to higher layer, sum(packetBytes)"
scalar TARPNetwork.node[0].wlan[0].mac.queue packetPopped:count 40
attr interpolationmode none
attr title "packet popped, count"
scalar TARPNetwork.node[0].wlan[0].mac.queue packetPopped:sum(packetBytes) 40800
attr interpolationmode none
attr title "packet popped, sum(packetBytes)"
statistic TARPNetwork.node[0].wlan[0].mac.queue queueingTime:histogram
field count 40
field mean 0
field stddev 0
field min 0
field max 0
field sum 0
field sqrsum 0
attr interpolationmode none
attr source queueingTime(packetPopped)
attr title "queueing times, histogram"
attr unit s
bin	-inf	0
bin	-0.5	0
bin	-0.48	0
bin	-0.46	0
bin	-0.44	0
bin	-0.42	0
bin	-0.4	0
bin	-0.38	0
bin	-0.36	0
bin	-0.34	0
bin	-0.32	0
bin	-0.3	0
bin	-0.28	0
bin	-0.26	0
bin	-0.24	0
bin	-0.22	0
bin	-0.2	0
bin	-0.18	0
bin	-0.16	0
bin	-0.14	0
bin	-0.12	0
bin	-0.1	0
bin	-0.08	0
bin	-0.06	0
bin	-0.04	0
bin	-0.02	0
bin	0	40
bin	0.02	0
bin	0.04	0
bin	0.06	0
bin	0.08	0
bin	0.1	0
bin	0.12	0
bin	0.14	0
bin	0.16	0
bin	0.18	0
bin	0.2	0
bin	0.22	0
bin	0.24	0
bin	0.26	0
bin	0.28	0
bin	0.3	0
bin	0.32	0
bin	0.34	0
bin	0.36	0
bin	0.38	0
bin	0.4	0
bin	0.42	0
bin	0.44	0
bin	0.46	0
bin	0.48	0
bin	0.5	0
scalar TARPNetwork.node[0].wlan[0].mac.queue queueLength:max 1
attr interpolationmode sample-hold
attr source "count(packetPushed) - count(packetPopped) - count(packetRemoved) - count(packetDropped)"
attr title "queue length, max"
scalar TARPNetwork.node[0].wlan[0].mac.queue queueLength:timeavg 0
attr interpolationmode sample-hold
attr source "count(packetPushed) - count(packetPopped) - count(packetRemoved) - count(packetDropped)"
attr title "queue length, timeavg"
scalar TARPNetwork.node[0].wlan[0].mac.queue packetPushed:count 40
attr interpolationmode none
attr title "packet pushed, count"
scalar TARPNetwork.node[0].wlan[0].mac.queue packetPushed:sum(packetBytes) 40800
attr interpolationmode none
attr title "packet pushed, sum(packetBytes)"
scalar TARPNetwork.node[0].wlan[0].mac.queue packetDropQueueOverflow:count 0
attr interpolationmode none
attr source packetDropReasonIsQueueOverflow(packetDropped)
attr title "packet drops: queue overflow, count"
scalar TARPNetwork.node[0].wlan[0].mac.queue packetDropQueueOverflow:sum(packetBytes) 0
attr interpolationmode none
attr source packetDropReasonIsQueueOverflow(packetDropped)
attr title "packet drops: queue overflow, sum(packetBytes)"
scalar TARPNetwork.node[0].wlan[0].mac.queue packetRemoved:count 0
attr interpolationmode none
attr title "packets removed, count"
scalar TARPNetwork.node[0].wlan[0].mac.queue packetRemoved:sum(packetBytes) 0
attr interpolationmode none
attr title "packets removed, sum(packetBytes)"
scalar TARPNetwork.node[0].wlan[0].mac rcvdPkFromLl:count 80
attr interpolationmode none
attr source packetReceivedFromLower
attr title "packets received from lower layer, count"
scalar TARPNetwork.node[0].wlan[0].mac rcvdPkFromLl:sum(packetBytes) 82880
attr interpolationmode none
attr source packetReceivedFromLower
attr title "packets received from lower layer, sum(packetBytes)"
scalar TARPNetwork.node[0].wlan[0].mac sentDownPk:count 40
attr interpolationmode none
attr source packetSentToLower
attr title "packets sent to lower layer, count"
scalar TARPNetwork.node[0].wlan[0].mac sentDownPk:sum(packetBytes) 41440
attr interpolationmode none
attr source packetSentToLower
attr title "packets sent to lower layer, sum(packetBytes)"
scalar TARPNetwork.node[0].wlan[0].mac rcvdPkFromHl:count 40
attr interpolationmode none
attr source packetReceivedFromUpper
attr title "packets received from higher layer, count"
scalar TARPNetwork.node[0].wlan[0].mac rcvdPkFromHl:sum(packetBytes) 40800
attr interpolationmode none
attr source packetReceivedFromUpper
attr title "packets received from higher layer, sum(packetBytes)"
scalar TARPNetwork.node[0].wlan[0].mac passedUpPk:count 80
attr interpolationmode none
attr source packetSentToUpper
attr title "packets passed to higher layer, count"
scalar TARPNetwork.node[0].wlan[0].mac passedUpPk:sum(packetBytes) 81600
attr interpolationmode none
attr source packetSentToUpper
attr title "packets passed to higher layer, sum(packetBytes)"
scalar TARPNetwork.node[0].wlan[0].mac packetDropIncorrectlyReceived:count 0
attr interpolationmode none
attr source packetDropReasonIsIncorrectlyReceived(packetDropped)
attr title "packet drop: incorrectly received, count"
scalar TARPNetwork.node[0].wlan[0].mac packetDropIncorrectlyReceived:sum(packetBytes) 0
attr interpolationmode none
attr source packetDropReasonIsIncorrectlyReceived(packetDropped)
attr title "packet drop: incorrectly received, sum(packetBytes)"
scalar TARPNetwork.node[0].wlan[0].mac packetDropInterfaceDown:count 0
attr interpolationmode none
attr source packetDropReasonIsInterfaceDown(packetDropped)
attr title "packet drop: interface down, count"
scalar TARPNetwork.node[0].wlan[0].mac packetDropInterfaceDown:sum(packetBytes) 0
attr interpolationmode none
attr source packetDropReasonIsInterfaceDown(packetDropped)
attr title "packet drop: interface down, sum(packetBytes)"
scalar TARPNetwork.node[0].wlan[0].mac packetDropNotAddressedToUs:count 0
attr interpolationmode none
attr source packetDropReasonIsNotAddressedToUs(packetDropped)
attr title "packet drop: not addressed to us, count"
scalar TARPNetwork.node[0].wlan[0].mac packetDropNotAddressedToUs:sum(packetBytes) 0
attr interpolationmode none
attr source packetDropReasonIsNotAddressedToUs(packetDropped)
attr title "packet drop: not addressed to us, sum(packetBytes)"
scalar TARPNetwork.node[0].wlan[0].mac linkBroken:count 0
attr interpolationmode none
attr source linkBroken
attr title "link break, count"
statistic TARPNetwork.node[0].wlan[0].radio minSnir:histogram
field count 0
field mean nan
field stddev nan
field min nan
field max nan
field sum 0
field sqrsum 0
attr source minimumSnir(packetSentToUpper)
attr title "Min SNIR, histogram"
bin	-inf	0
bin	0	0
bin	1	0
statistic TARPNetwork.node[0].wlan[0].radio packetErrorRate:histogram
field count 80
field mean 0.6125
field stddev 0.49025309919043
field min 0
field max 1
field sum 49
field sqrsum 49
attr source packetErrorRate(packetSentToUpper)
attr title "Packet error rate, histogram"
bin	-inf	0
bin	0	31
bin	1	49
bin	2	0
statistic TARPNetwork.node[0].wlan[0].radio bitErrorRate:histogram
field count 80
field mean 0.6125
field stddev 0.49025309919043
field min 0
field max 1
field sum 49
field sqrsum 49
attr source bitErrorRate(packetSentToUpper)
attr title "Bit error rate, histogram"
bin	-inf	0
bin	0	31
bin	1	49
bin	2	0
statistic TARPNetwork.node[0].wlan[0].radio symbolErrorRate:histogram
field count 80
field mean 0.6125
field stddev 0.49025309919043
field min 0
field max 1
field sum 49
field sqrsum 49
attr source symbolErrorRate(packetSentToUpper)
attr title "Symbol error rate, histogram"
bin	-inf	0
bin	0	31
bin	1	49
bin	2	0
scalar TARPNetwork.node[0].wlan[0].radio transmissionState:count 81
attr interpolationmode sample-hold
attr source transmissionStateChanged
attr title "Radio transmission state, count"
scalar TARPNetwork.node[0].wlan[0].radio receptionState:count 200
attr interpolationmode sample-hold
attr source receptionStateChanged
attr title "Radio reception state, count"
scalar TARPNetwork.node[0].wlan[0].radio radioMode:count 3
attr interpolationmode sample-hold
attr source radioModeChanged
attr title "Radio mode, count"
scalar TARPNetwork.node[0].generic.np nbDataPacketsReceived 0
scalar TARPNetwork.node[0].generic.np nbDataPacketsSent 0
scalar TARPNetwork.node[0].generic.np nbDataPacketsForwarded 40
scalar TARPNetwork.node[0].generic.np meanNbHops 0
scalar TARPNetwork.node[0].generic.np nbSpdDrops 8
scalar TARPNetwork.node[0].udp packetReceived:count 0
attr interpolationmode none
attr source packetReceived
attr title "packets received, count"
scalar TARPNetwork.node[0].udp packetReceived:sum(packetBytes) 0
attr interpolationmode none
attr source packetReceived
attr title "packets received, sum(packetBytes)"
scalar TARPNetwork.node[0].udp packetSent:count 0
attr interpolationmode none
attr source packetSent
attr title "packets sent, count"
scalar TARPNetwork.node[0].udp packetSent:sum(packetBytes) 0
attr interpolationmode none
attr source packetSent
attr title "packets sent, sum(packetBytes)"
scalar TARPNetwork.node[0].udp passedUpPk:count 0
attr interpolationmode none
attr source packetSentToUpper
attr title "packets passed up, count"
scalar TARPNetwork.node[0].udp droppedPkWrongPort:count 0
attr interpolationmode none
attr source packetDropReasonIsNoPortFound(packetDropped)
attr title "packets dropped (wrong port), count"
scalar TARPNetwork.node[0].udp droppedPkBadChecksum:count 0
attr interpolationmode none
attr source packetDropReasonIsIncorrectlyReceived(packetDropped)
attr title "packets dropped (checksum error), count"
scalar TARPNetwork.node[1].lo[0].lo rcvdPkFromHl:count 0
attr interpolationmode none
attr source packetReceivedFromUpper
attr title "packets received from higher layer, count"
scalar TARPNetwork.node[1].lo[0].lo rcvdPkFromHl:sum(packetBytes) 0
attr interpolationmode none
attr source packetReceivedFromUpper
attr title "packets received from higher layer, sum(packetBytes)"
scalar TARPNetwork.node[1].lo[0].lo passedUpPk:count 0
attr interpolationmode none
attr source packetSentToUpper
attr title "packets passed to higher layer, count"
scalar TARPNetwork.node[1].lo[0].lo passedUpPk:sum(packetBytes) 0
attr interpolationmode none
attr source packetSentToUpper
attr title "packets passed to higher layer, sum(packetBytes)"
scalar TARPNetwork.node[1].wlan[0].mac.queue packetPopped:count 308
attr interpolationmode none
attr title "packet popped, count"
scalar TARPNetwork.node[1].wlan[0].mac.queue packetPopped:sum(packetBytes) 314160
attr interpolationmode none
attr title "packet popped, sum(packetBytes)"
statistic TARPNetwork.node[1].wlan[0].mac.queue queueingTime:histogram
field count 308
field mean 0
field stddev 0
field min 0
field max 0
field sum 0
field sqrsum 0
attr interpolationmode none
attr source queueingTime(packetPopped)
attr title "queueing times, histogram"
attr unit s
bin	-inf	0
bin	-0.5	0
bin	-0.48	0
bin	-0.46	0
bin	-0.44	0
bin	-0.42	0
bin	-0.4	0
bin	-0.38	0
bin	-0.36	0
bin	-0.34	0
bin	-0.32	0
bin	-0.3	0
bin	-0.28	0
bin	-0.26	0
bin	-0.24	0
bin	-0.22	0
bin	-0.2	0
bin	-0.18	0
bin	-0.16	0
bin	-0.14	0
bin	-0.12	0
bin	-0.1	0
bin	-0.08	0
bin	-0.06	0
bin	-0.04	0
bin	-0.02	0
bin	0	308
bin	0.02	0
bin	0.04	0
bin	0.06	0
bin	0.08	0
bin	0.1	0
bin	0.12	0
bin	0.14	0
bin	0.16	0
bin	0.18	0
bin	0.2	0
bin	0.22	0
bin	0.24	0
bin	0.26	0
bin	0.28	0
bin	0.3	0
bin	0.32	0
bin	0.34	0
bin	0.36	0
bin	0.38	0
bin	0.4	0
bin	0.42	0
bin	0.44	0
bin	0.46	0
bin	0.48	0
bin	0.5	0
scalar TARPNetwork.node[1].wlan[0].mac.queue queueLength:max 1
attr interpolationmode sample-hold
attr source "count(packetPushed) - count(packetPopped) - count(packetRemoved) - count(packetDropped)"
attr title "queue length, max"
scalar TARPNetwork.node[1].wlan[0].mac.queue queueLength:timeavg 0
attr interpolationmode sample-hold
attr source "count(packetPushed) - count(packetPopped) - count(packetRemoved) - count(packetDropped)"
attr title "queue length, timeavg"
scalar TARPNetwork.node[1].wlan[0].mac.queue packetPushed:count 308
attr interpolationmode none
attr title "packet pushed, count"
scalar TARPNetwork.node[1].wlan[0].mac.queue packetPushed:sum(packetBytes) 314160
attr interpolationmode none
attr title "packet pushed, sum(packetBytes)"
scalar TARPNetwork.node[1].wlan[0].mac.queue packetDropQueueOverflow:count 0
attr interpolationmode none
attr source packetDropReasonIsQueueOverflow(packetDropped)
attr title "packet drops: queue overflow, count"
scalar TARPNetwork.node[1].wlan[0].mac.queue packetDropQueueOverflow:sum(packetBytes) 0
attr interpolationmode none
attr source packetDropReasonIsQueueOverflow(packetDropped)
attr title "packet drops: queue overflow, sum(packetBytes)"
scalar TARPNetwork.node[1].wlan[0].mac.queue packetRemoved:count 0
attr interpolationmode none
attr title "packets removed, count"
scalar TARPNetwork.node[1].wlan[0].mac.queue packetRemoved:sum(packetBytes) 0
attr interpolationmode none
attr title "packets removed, sum(packetBytes)"
scalar TARPNetwork.node[1].wlan[0].mac rcvdPkFromLl:count 646
attr interpolationmode none
attr source packetReceivedFromLower
attr title "packets received from lower layer, count"
scalar TARPNetwork.node[1].wlan[0].mac rcvdPkFromLl:sum(packetBytes) 669256
attr interpolationmode none
attr source packetReceivedFromLower
attr title "packets received from lower layer, sum(packetBytes)"
scalar TARPNetwork.node[1].wlan[0].mac sentDownPk:count 308
attr interpolationmode none
attr source packetSentToLower
attr title "packets sent to lower layer, count"
scalar TARPNetwork.node[1].wlan[0].mac sentDownPk:sum(packetBytes) 319088
attr interpolationmode none
attr source packetSentToLower
attr title "packets sent to lower layer, sum(packetBytes)"
scalar TARPNetwork.node[1].wlan[0].mac rcvdPkFromHl:count 308
attr interpolationmode none
attr source packetReceivedFromUpper
attr title "packets received from higher layer, count"
scalar TARPNetwork.node[1].wlan[0].mac rcvdPkFromHl:sum(packetBytes) 314160
attr interpolationmode none
attr source packetReceivedFromUpper
attr title "packets received from higher layer, sum(packetBytes)"
scalar TARPNetwork.node[1].wlan[0].mac passedUpPk:count 646
attr interpolationmode none
attr source packetSentToUpper
attr title "packets passed to higher layer, count"
scalar TARPNetwork.node[1].wlan[0].mac passedUpPk:sum(packetBytes) 658920
attr interpolationmode none
attr source packetSentToUpper
attr title "packets passed to higher layer, sum(packetBytes)"
scalar TARPNetwork.node[1].wlan[0].mac packetDropIncorrectlyReceived:count 0
attr interpolationmode none
attr source packetDropReasonIsIncorrectlyReceived(packetDropped)
attr title "packet drop: incorrectly received, count"
scalar TARPNetwork.node[1].wlan[0].mac packetDropIncorrectlyReceived:sum(packetBytes) 0
attr interpolationmode none
attr source packetDropReasonIsIncorrectlyReceived(packetDropped)
attr title "packet drop: incorrectly received, sum(packetBytes)"
scalar TARPNetwork.node[1].wlan[0].mac packetDropInterfaceDown:count 0
attr interpolationmode none
attr source packetDropReasonIsInterfaceDown(packetDropped)
attr title "packet drop: interface down, count"
scalar TARPNetwork.node[1].wlan[0].mac packetDropInterfaceDown:sum(packetBytes) 0
attr interpolationmode none
attr source packetDropReasonIsInterfaceDown(packetDropped)
attr title "packet drop: interface down, sum(packetBytes)"
scalar TARPNetwork.node[1].wlan[0].mac packetDropNotAddressedToUs:count 0
attr interpolationmode none
attr source packetDropReasonIsNotAddressedToUs(packetDropped)
attr title "packet drop: not addressed to us, count"
scalar TARPNetwork.node[1].wlan[0].mac packetDropNotAddressedToUs:sum(packetBytes) 0
attr interpolationmode none
attr source packetDropReasonIsNotAddressedToUs(packetDropped)
attr title "packet drop: not addressed to us, sum(packetBytes)"
scalar TARPNetwork.node[1].wlan[0].mac linkBroken:count 0
attr interpolationmode none
attr source linkBroken
attr title "link break, count"
statistic TARPNetwork.node[1].wlan[0].radio minSnir:histogram
field count 0
field mean nan
field stddev nan
field min nan
field max nan
field sum 0
field sqrsum 0
attr source minimumSnir(packetSentToUpper)
attr title "Min SNIR, histogram"
bin	-inf	0
bin	0	0
bin	1	0
statistic TARPNetwork.node[1].wlan[0].radio packetErrorRate:histogram
field count 646
field mean 0.14860681114551
field stddev 0.35597610347903
field min 0
field max 1
field sum 96
field sqrsum 96
attr source packetErrorRate(packetSentToUpper)
attr title "Packet error rate, histogram"
bin	-inf	0
bin	0	550
bin	1	96
bin	2	0
statistic TARPNetwork.node[1].wlan[0].radio bitErrorRate:histogram
field count 646
field mean 0.14860681114551
field stddev 0.35597610347903
field min 0
field max 1
field sum 96
field sqrsum 96
attr source bitErrorRate(packetSentToUpper)
attr title "Bit error rate, histogram"
bin	-inf	0
bin	0	550
bin	1	96
bin	2	0
statistic TARPNetwork.node[1].wlan[0].radio symbolErrorRate:histogram
field count 646
field mean 0.14860681114551
field stddev 0.35597610347903
field min 0
field max 1
field sum 96
field sqrsum 96
attr source symbolErrorRate(packetSentToUpper)
attr title "Symbol error rate, histogram"
bin	-inf	0
bin	0	550
bin	1	96
bin	2	0
scalar TARPNetwork.node[1].wlan[0].radio transmissionState:count 617
attr interpolationmode sample-hold
attr source transmissionStateChanged
attr title "Radio transmission state, count"
scalar TARPNetwork.node[1].wlan[0].radio receptionState:count 1293
attr interpolationmode sample-hold
attr source receptionStateChanged
attr title "Radio reception state, count"
scalar TARPNetwork.node[1].wlan[0].radio radioMode:count 3
attr interpolationmode sample-hold
attr source radioModeChanged
attr title "Radio mode, count"
scalar TARPNetwork.node[1].generic.np nbDataPacketsReceived 0
scalar TARPNetwork.node[1].generic.np nbDataPacketsSent 0
scalar TARPNetwork.node[1].generic.np nbDataPacketsForwarded 308
scalar TARPNetwork.node[1].generic.np meanNbHops 0
scalar TARPNetwork.node[1].generic.np nbSpdDrops 290
scalar TARPNetwork.node[1].udp packetReceived:count 0
attr interpolationmode none
attr source packetReceived
attr title "packets received, count"
scalar TARPNetwork.node[1].udp packetReceived:sum(packetBytes) 0
attr interpolationmode none
attr source packetReceived
attr title "packets received, sum(packetBytes)"
scalar TARPNetwork.node[1].udp packetSent:count 0
attr interpolationmode none
attr source packetSent
attr title "packets sent, count"
scalar TARPNetwork.node[1].udp packetSent:sum(packetBytes) 0
attr interpolationmode none
attr source packetSent
attr title "packets sent, sum(packetBytes)"
scalar TARPNetwork.node[1].udp passedUpPk:count 0
attr interpolationmode none
attr source packetSentToUpper
attr title "packets passed up, count"
scalar TARPNetwork.node[1].udp droppedPkWrongPort:count 0
attr interpolationmode none
attr source packetDropReasonIsNoPortFound(packetDropped)
attr title "packets dropped (wrong port), count"
scalar TARPNetwork.node[1].udp droppedPkBadChecksum:count 0
attr interpolationmode none
attr source packetDropReasonIsIncorrectlyReceived(packetDropped)
attr title "packets dropped (checksum error), count"
scalar TARPNetwork.node[2].lo[0].lo rcvdPkFromHl:count 0
attr interpolationmode none
attr source packetReceivedFromUpper
attr title "packets received from higher layer, count"
scalar TARPNetwork.node[2].lo[0].lo rcvdPkFromHl:sum(packetBytes) 0
attr interpolationmode none
attr source packetReceivedFromUpper
attr title "packets received from higher layer, sum(packetBytes)"
scalar TARPNetwork.node[2].lo[0].lo passedUpPk:count 0
attr interpolationmode none
attr source packetSentToUpper
attr title "packets passed to higher layer, count"
scalar TARPNetwork.node[2].lo[0].lo passedUpPk:sum(packetBytes) 0
attr interpolationmode none
attr source packetSentToUpper
attr title "packets passed to higher layer, sum(packetBytes)"
scalar TARPNetwork.node[2].wlan[0].mac.queue packetPopped:count 598
attr interpolationmode none
attr title "packet popped, count"
scalar TARPNetwork.node[2].wlan[0].mac.queue packetPopped:sum(packetBytes) 609960
attr interpolationmode none
attr title "packet popped, sum(packetBytes)"
statistic TARPNetwork.node[2].wlan[0].mac.queue queueingTime:histogram
field count 598
field mean 0
field stddev 0
field min 0
field max 0
field sum 0
field sqrsum 0
attr interpolationmode none
attr source queueingTime(packetPopped)
attr title "queueing times, histogram"
attr unit s
bin	-inf	0
bin	-0.5	0
bin	-0.48	0
bin	-0.46	0
bin	-0.44	0
bin	-0.42	0
bin	-0.4	0
bin	-0.38	0
bin	-0.36	0
bin	-0.34	0
bin	-0.32	0
bin	-0.3	0
bin	-0.28	0
bin	-0.26	0
bin	-0.24	0
bin	-0.22	0
bin	-0.2	0
bin	-0.18	0
bin	-0.16	0
bin	-0.14	0
bin	-0.12	0
bin	-0.1	0
bin	-0.08	0
bin	-0.06	0
bin	-0.04	0
bin	-0.02	0
bin	0	598
bin	0.02	0
bin	0.04	0
bin	0.06	0
bin	0.08	0
bin	0.1	0
bin	0.12	0
bin	0.14	0
bin	0.16	0
bin	0.18	0
bin	0.2	0
bin	0.22	0
bin	0.24	0
bin	0.26	0
bin	0.28	0
bin	0.3	0
bin	0.32	0
bin	0.34	0
bin	0.36	0
bin	0.38	0
bin	0.4	0
bin	0.42	0
bin	0.44	0
bin	0.46	0
bin	0.48	0
bin	0.5	0
scalar TARPNetwork.node[2].wlan[0].mac.queue queueLength:max 1
attr interpolationmode sample-hold
attr source "count(packetPushed) - count(packetPopped) - count(packetRemoved) - count(packetDropped)"
attr title "queue length, max"
scalar TARPNetwork.node[2].wlan[0].mac.queue queueLength:timeavg 0
attr interpolationmode sample-hold
attr source "count(packetPushed) - count(packetPopped) - count(packetRemoved) - count(packetDropped)"
attr title "queue length, timeavg"
scalar TARPNetwork.node[2].wlan[0].mac.queue packetPushed:count 598
attr interpolationmode none
attr title "packet pushed, count"
scalar TARPNetwork.node[2].wlan[0].mac.queue packetPushed:sum(packetBytes) 609960
attr interpolationmode none
attr title "packet pushed, sum(packetBytes)"
scalar TARPNetwork.node[2].wlan[0].mac.queue packetDropQueueOverflow:count 0
attr interpolationmode none
attr source packetDropReasonIsQueueOverflow(packetDropped)
attr title "packet drops: queue overflow, count"
scalar TARPNetwork.node[2].wlan[0].mac.queue packetDropQueueOverflow:sum(packetBytes) 0
attr interpolationmode none
attr source packetDropReasonIsQueueOverflow(packetDropped)
attr title "packet drops: queue overflow, sum(packetBytes)"
scalar TARPNetwork.node[2].wlan[0].mac.queue packetRemoved:count 0
attr interpolationmode none
attr title "packets removed, count"
scalar TARPNetwork.node[2].wlan[0].mac.queue packetRemoved:sum(packetBytes) 0
attr interpolationmode none
attr title "packets removed, sum(packetBytes)"
scalar TARPNetwork.node[2].wlan[0].mac rcvdPkFromLl:count 1794
attr interpolationmode none
attr source packetReceivedFromLower
attr title "packets received from lower layer, count"
scalar TARPNetwork.node[2].wlan[0].mac rcvdPkFromLl:sum(packetBytes) 1858584
attr interpolationmode none
attr source packetReceivedFromLower
attr title "packets received from lower layer, sum(packetBytes)"
scalar TARPNetwork.node[2].wlan[0].mac sentDownPk:count 598
attr interpolationmode none
attr source packetSentToLower
attr title "packets sent to lower layer, count"
scalar TARPNetwork.node[2].wlan[0].mac sentDownPk:sum(packetBytes) 619528
attr interpolationmode none
attr source packetSentToLower
attr title "packets sent to lower layer, sum(packetBytes)"
scalar TARPNetwork.node[2].wlan[0].mac rcvdPkFromHl:count 598
attr interpolationmode none
attr source packetReceivedFromUpper
attr title "packets received from higher layer, count"
scalar TARPNetwork.node[2].wlan[0].mac rcvdPkFromHl:sum(packetBytes) 609960
attr interpolationmode none
attr source packetReceivedFromUpper
attr title "packets received from higher layer, sum(packetBytes)"
scalar TARPNetwork.node[2].wlan[0].mac passedUpPk:count 1794
attr interpolationmode none
attr source packetSentToUpper
attr title "packets passed to higher layer, count"
scalar TARPNetwork.node[2].wlan[0].mac passedUpPk:sum(packetBytes) 1829880
attr interpolationmode none
attr source packetSentToUpper
attr title "packets passed to higher layer, sum(packetBytes)"
scalar TARPNetwork.node[2].wlan[0].mac packetDropIncorrectlyReceived:count 0
attr interpolationmode none
attr source packetDropReasonIsIncorrectlyReceived(packetDropped)
attr title "packet drop: incorrectly received, count"
scalar TARPNetwork.node[2].wlan[0].mac packetDropIncorrectlyReceived:sum(packetBytes) 0
attr interpolationmode none
attr source packetDropReasonIsIncorrectlyReceived(packetDropped)
attr title "packet drop: incorrectly received, sum(packetBytes)"
scalar TARPNetwork.node[2].wlan[0].mac packetDropInterfaceDown:count 0
attr interpolationmode none
attr source packetDropReasonIsInterfaceDown(packetDropped)
attr title "packet drop: interface down, count"
scalar TARPNetwork.node[2].wlan[0].mac packetDropInterfaceDown:sum(packetBytes) 0
attr interpolationmode none
attr source packetDropReasonIsInterfaceDown(packetDropped)
attr title "packet drop: interface down, sum(packetBytes)"
scalar TARPNetwork.node[2].wlan[0].mac packetDropNotAddressedToUs:count 0
attr interpolationmode none
attr source packetDropReasonIsNotAddressedToUs(packetDropped)
attr title "packet drop: not addressed to us, count"
scalar TARPNetwork.node[2].wlan[0].mac packetDropNotAddressedToUs:sum(packetBytes) 0
attr interpolationmode none
attr source packetDropReasonIsNotAddressedToUs(packetDropped)
attr title "packet drop: not addressed to us, sum(packetBytes)"
scalar TARPNetwork.node[2].wlan[0].mac linkBroken:count 0
attr interpolationmode none
attr source linkBroken
attr title "link break, count"
statistic TARPNetwork.node[2].wlan[0].radio minSnir:histogram
field count 0
field mean nan
field stddev nan
field min nan
field max nan
field sum 0
field sqrsum 0
attr source minimumSnir(packetSentToUpper)
attr title "Min SNIR, histogram"
bin	-inf	0
bin	0	0
bin	1	0
statistic TARPNetwork.node[2].wlan[0].radio packetErrorRate:histogram
field count 1794
field mean 0.66666666666667
field stddev 0.47153595938854
field min 0
field max 1
field sum 1196
field sqrsum 1196
attr source packetErrorRate(packetSentToUpper)
attr title "Packet error rate, histogram"
bin	-inf	0
bin	0	598
bin	1	1196
bin	2	0
statistic TARPNetwork.node[2].wlan[0].radio bitErrorRate:histogram
field count 1794
field mean 0.66666666666667
field stddev 0.47153595938854
field min 0
field max 1
field sum 1196
field sqrsum 1196
attr source bitErrorRate(packetSentToUpper)
attr title "Bit error rate, histogram"
bin	-inf	0
bin	0	598
bin	1	1196
bin	2	0
statistic TARPNetwork.node[2].wlan[0].radio symbolErrorRate:histogram
field count 1794
field mean 0.66666666666667
field stddev 0.47153595938854
field min 0
field max 1
field sum 1196
field sqrsum 1196
attr source symbolErrorRate(packetSentToUpper)
attr title "Symbol error rate, histogram"
bin	-inf	0
bin	0	598
bin	1	1196
bin	2	0
scalar TARPNetwork.node[2].wlan[0].radio transmissionState:count 1197
attr interpolationmode sample-hold
attr source transmissionStateChanged
attr title "Radio transmission state, count"
scalar TARPNetwork.node[2].wlan[0].radio receptionState:count 4187
attr interpolationmode sample-hold
attr source receptionStateChanged
attr title "Radio reception state, count"
scalar TARPNetwork.node[2].wlan[0].radio radioMode:count 3
attr interpolationmode sample-hold
attr source radioModeChanged
attr title "Radio mode, count"
scalar TARPNetwork.node[2].generic.np nbDataPacketsReceived 0
scalar TARPNetwork.node[2].generic.np nbDataPacketsSent 0
scalar TARPNetwork.node[2].generic.np nbDataPacketsForwarded 598
scalar TARPNetwork.node[2].generic.np meanNbHops 0
scalar TARPNetwork.node[2].generic.np nbSpdDrops 0
scalar TARPNetwork.node[2].udp packetReceived:count 0
attr interpolationmode none
attr source packetReceived
attr title "packets received, count"
scalar TARPNetwork.node[2].udp packetReceived:sum(packetBytes) 0
attr interpolationmode none
attr source packetReceived
attr title "packets received, sum(packetBytes)"
scalar TARPNetwork.node[2].udp packetSent:count 0
attr interpolationmode none
attr source packetSent
attr title "packets sent, count"
scalar TARPNetwork.node[2].udp packetSent:sum(packetBytes) 0
attr interpolationmode none
attr source packetSent
attr title "packets sent, sum(packetBytes)"
scalar TARPNetwork.node[2].udp passedUpPk:count 0
attr interpolationmode none
attr source packetSentToUpper
attr title "packets passed up, count"
scalar TARPNetwork.node[2].udp droppedPkWrongPort:count 0
attr interpolationmode none
attr source packetDropReasonIsNoPortFound(packetDropped)
attr title "packets dropped (wrong port), count"
scalar TARPNetwork.node[2].udp droppedPkBadChecksum:count 0
attr interpolationmode none
attr source packetDropReasonIsIncorrectlyReceived(packetDropped)
attr title "packets dropped (checksum error), count"
scalar TARPNetwork.node[3].lo[0].lo rcvdPkFromHl:count 0
attr interpolationmode none
attr source packetReceivedFromUpper
attr title "packets received from higher layer, count"
scalar TARPNetwork.node[3].lo[0].lo rcvdPkFromHl:sum(packetBytes) 0
attr interpolationmode none
attr source packetReceivedFromUpper
attr title "packets received from higher layer, sum(packetBytes)"
scalar TARPNetwork.node[3].lo[0].lo passedUpPk:count 0
attr interpolationmode none
attr source packetSentToUpper
attr title "packets passed to higher layer, count"
scalar TARPNetwork.node[3].lo[0].lo passedUpPk:sum(packetBytes) 0
attr interpolationmode none
attr source packetSentToUpper
attr title "packets passed to higher layer, sum(packetBytes)"
scalar TARPNetwork.node[3].wlan[0].mac.queue packetPopped:count 40
attr interpolationmode none
attr title "packet popped, count"
scalar TARPNetwork.node[3].wlan[0].mac.queue packetPopped:sum(packetBytes) 40800
attr interpolationmode none
attr title "packet popped, sum(packetBytes)"
statistic TARPNetwork.node[3].wlan[0].mac.queue queueingTime:histogram
field count 40
field mean 0
field stddev 0
field min 0
field max 0
field sum 0
field sqrsum 0
attr interpolationmode none
attr source queueingTime(packetPopped)
attr title "queueing times, histogram"
attr unit s
bin	-inf	0
bin	-0.5	0
bin	-0.48	0
bin	-0.46	0
bin	-0.44	0
bin	-0.42	0
bin	-0.4	0
bin	-0.38	0
bin	-0.36	0
bin	-0.34	0
bin	-0.32	0
bin	-0.3	0
bin	-0.28	0
bin	-0.26	0
bin	-0.24	0
bin	-0.22	0
bin	-0.2	0
bin	-0.18	0
bin	-0.16	0
bin	-0.14	0
bin	-0.12	0
bin	-0.1	0
bin	-0.08	0
bin	-0.06	0
bin	-0.04	0
bin	-0.02	0
bin	0	40
bin	0.02	0
bin	0.04	0
bin	0.06	0
bin	0.08	0
bin	0.1	0
bin	0.12	0
bin	0.14	0
bin	0.16	0
bin	0.18	0
bin	0.2	0
bin	0.22	0
bin	0.24	0
bin	0.26	0
bin	0.28	0
bin	0.3	0
bin	0.32	0
bin	0.34	0
bin	0.36	0
bin	0.38	0
bin	0.4	0
bin	0.42	0
bin	0.44	0
bin	0.46	0
bin	0.48	0
bin	0.5	0
scalar TARPNetwork.node[3].wlan[0].mac.queue queueLength:max 1
attr interpolationmode sample-hold
attr source "count(packetPushed) - count(packetPopped) - count(packetRemoved) - count(packetDropped)"
attr title "queue length, max"
scalar TARPNetwork.node[3].wlan[0].mac.queue queueLength:timeavg 0
attr interpolationmode sample-hold
attr source "count(packetPushed) - count(packetPopped) - count(packetRemoved) - count(packetDropped)"
attr title "queue length, timeavg"
scalar TARPNetwork.node[3].wlan[0].mac.queue packetPushed:count 40
attr interpolationmode none
attr title "packet pushed, count"
scalar TARPNetwork.node[3].wlan[0].mac.queue packetPushed:sum(packetBytes) 40800
attr interpolationmode none
attr title "packet pushed, sum(packetBytes)"
scalar TARPNetwork.node[3].wlan[0].mac.queue packetDropQueueOverflow:count 0
attr interpolationmode none
attr source packetDropReasonIsQueueOverflow(packetDropped)
attr title "packet drops: queue overflow, count"
scalar TARPNetwork.node[3].wlan[0].mac.queue packetDropQueueOverflow:sum(packetBytes) 0
attr interpolationmode none
attr source packetDropReasonIsQueueOverflow(packetDropped)
attr title "packet drops: queue overflow, sum(packetBytes)"
scalar TARPNetwork.node[3].wlan[0].mac.queue packetRemoved:count 0
attr interpolationmode none
attr title "packets removed, count"
scalar TARPNetwork.node[3].wlan[0].mac.queue packetRemoved:sum(packetBytes) 0
attr interpolationmode none
attr title "packets removed, sum(packetBytes)"
scalar TARPNetwork.node[3].wlan[0].mac rcvdPkFromLl:count 119
attr interpolationmode none
attr source packetReceivedFromLower
attr title "packets received from lower layer, count"
scalar TARPNetwork.node[3].wlan[0].mac rcvdPkFromLl:sum(packetBytes) 123284
attr interpolationmode none
attr source packetReceivedFromLower
attr title "packets received from lower layer, sum(packetBytes)"
scalar TARPNetwork.node[3].wlan[0].mac sentDownPk:count 40
attr interpolationmode none
attr source packetSentToLower
attr title "packets sent to lower layer, count"
scalar TARPNetwork.node[3].wlan[0].mac sentDownPk:sum(packetBytes) 41440
attr interpolationmode none
attr source packetSentToLower
attr title "packets sent to lower layer, sum(packetBytes)"
scalar TARPNetwork.node[3].wlan[0].mac rcvdPkFromHl:count 40
attr interpolationmode none
attr source packetReceivedFromUpper
attr title "packets received from higher layer, count"
scalar TARPNetwork.node[3].wlan[0].mac rcvdPkFromHl:sum(packetBytes) 40800
attr interpolationmode none
attr source packetReceivedFromUpper
attr title "packets received from higher layer, sum(packetBytes)"
scalar TARPNetwork.node[3].wlan[0].mac passedUpPk:count 119
attr interpolationmode none
attr source packetSentToUpper
attr title "packets passed to higher layer, count"
scalar TARPNetwork.node[3].wlan[0].mac passedUpPk:sum(packetBytes) 121380
attr interpolationmode none
attr source packetSentToUpper
attr title "packets passed to higher layer, sum(packetBytes)"
scalar TARPNetwork.node[3].wlan[0].mac packetDropIncorrectlyReceived:count 0
attr interpolationmode none
attr source packetDropReasonIsIncorrectlyReceived(packetDropped)
attr title "packet drop: incorrectly received, count"
scalar TARPNetwork.node[3].wlan[0].mac packetDropIncorrectlyReceived:sum(packetBytes) 0
attr interpolationmode none
attr source packetDropReasonIsIncorrectlyReceived(packetDropped)
attr title "packet drop: incorrectly received, sum(packetBytes)"
scalar TARPNetwork.node[3].wlan[0].mac packetDropInterfaceDown:count 0
attr interpolationmode none
attr source packetDropReasonIsInterfaceDown(packetDropped)
attr title "packet drop: interface down, count"
scalar TARPNetwork.node[3].wlan[0].mac packetDropInterfaceDown:sum(packetBytes) 0
attr interpolationmode none
attr source packetDropReasonIsInterfaceDown(packetDropped)
attr title "packet drop: interface down, sum(packetBytes)"
scalar TARPNetwork.node[3].wlan[0].mac packetDropNotAddressedToUs:count 0
attr interpolationmode none
attr source packetDropReasonIsNotAddressedToUs(packetDropped)
attr title "packet drop: not addressed to us, count"
scalar TARPNetwork.node[3].wlan[0].mac packetDropNotAddressedToUs:sum(packetBytes) 0
attr interpolationmode none
attr source packetDropReasonIsNotAddressedToUs(packetDropped)
attr title "packet drop: not addressed to us, sum(packetBytes)"
scalar TARPNetwork.node[3].wlan[0].mac linkBroken:count 0
attr interpolationmode none
attr source linkBroken
attr title "link break, count"
statistic TARPNetwork.node[3].wlan[0].radio minSnir:histogram
field count 0
field mean nan
field stddev nan
field min nan
field max nan
field sum 0
field sqrsum 0
attr source minimumSnir(packetSentToUpper)
attr title "Min SNIR, histogram"
bin	-inf	0
bin	0	0
bin	1	0
statistic TARPNetwork.node[3].wlan[0].radio packetErrorRate:histogram
field count 119
field mean 0.34453781512605
field stddev 0.477226712813
field min 0
field max 1
field sum 41
field sqrsum 41
attr source packetErrorRate(packetSentToUpper)
attr title "Packet error rate, histogram"
bin	-inf	0
bin	0	78
bin	1	41
bin	2	0
statistic TARPNetwork.node[3].wlan[0].radio bitErrorRate:histogram
field count 119
field mean 0.34453781512605
field stddev 0.477226712813
field min 0
field max 1
field sum 41
field sqrsum 41
attr source bitErrorRate(packetSentToUpper)
attr title "Bit error rate, histogram"
bin	-inf	0
bin	0	78
bin	1	41
bin	2	0
statistic TARPNetwork.node[3].wlan[0].radio symbolErrorRate:histogram
field count 119
field mean 0.34453781512605
field stddev 0.477226712813
field min 0
field max 1
field sum 41
field sqrsum 41
attr source symbolErrorRate(packetSentToUpper)
attr title "Symbol error rate, histogram"
bin	-inf	0
bin	0	78
bin	1	41
bin	2	0
scalar TARPNetwork.node[3].wlan[0].radio transmissionState:count 81
attr interpolationmode sample-hold
attr source transmissionStateChanged
attr title "Radio transmission state, count"
scalar TARPNetwork.node[3].wlan[0].radio receptionState:count 279
attr interpolationmode sample-hold
attr source receptionStateChanged
attr title "Radio reception state, count"
scalar TARPNetwork.node[3].wlan[0].radio radioMode:count 3
attr interpolationmode sample-hold
attr source radioModeChanged
attr title "Radio mode, count"
scalar TARPNetwork.node[3].generic.np nbDataPacketsReceived 0
scalar TARPNetwork.node[3].generic.np nbDataPacketsSent 0
scalar TARPNetwork.node[3].generic.np nbDataPacketsForwarded 40
scalar TARPNetwork.node[3].generic.np meanNbHops 0
scalar TARPNetwork.node[3].generic.np nbSpdDrops 8
scalar TARPNetwork.node[3].udp packetReceived:count 0
attr interpolationmode none
attr source packetReceived
attr title "packets received, count"
scalar TARPNetwork.node[3].udp packetReceived:sum(packetBytes) 0
attr interpolationmode none
attr source packetReceived
attr title "packets received, sum(packetBytes)"
scalar TARPNetwork.node[3].udp packetSent:count 0
attr interpolationmode none
attr source packetSent
attr title "packets sent, count"
scalar TARPNetwork.node[3].udp packetSent:sum(packetBytes) 0
attr interpolationmode none
attr source packetSent
attr title "packets sent, sum(packetBytes)"
scalar TARPNetwork.node[3].udp passedUpPk:count 0
attr interpolationmode none
attr source packetSentToUpper
attr title "packets passed up, count"
scalar TARPNetwork.node[3].udp droppedPkWrongPort:count 0
attr interpolationmode none
attr source packetDropReasonIsNoPortFound(packetDropped)
attr title "packets dropped (wrong port), count"
scalar TARPNetwork.node[3].udp droppedPkBadChecksum:count 0
attr interpolationmode none
attr source packetDropReasonIsIncorrectlyReceived(packetDropped)
attr title "packets dropped (checksum error), count"
scalar TARPNetwork.node[4].lo[0].lo rcvdPkFromHl:count 0
attr interpolationmode none
attr source packetReceivedFromUpper
attr title "packets received from higher layer, count"
scalar TARPNetwork.node[4].lo[0].lo rcvdPkFromHl:sum(packetBytes) 0
attr interpolationmode none
attr source packetReceivedFromUpper
attr title "packets received from higher layer, sum(packetBytes)"
scalar TARPNetwork.node[4].lo[0].lo passedUpPk:count 0
attr interpolationmode none
attr source packetSentToUpper
attr title "packets passed to higher layer, count"
scalar TARPNetwork.node[4].lo[0].lo passedUpPk:sum(packetBytes) 0
attr interpolationmode none
attr source packetSentToUpper
attr title "packets passed to higher layer, sum(packetBytes)"
scalar TARPNetwork.node[4].wlan[0].mac.queue packetPopped:count 598
attr interpolationmode none
attr title "packet popped, count"
scalar TARPNetwork.node[4].wlan[0].mac.queue packetPopped:sum(packetBytes) 609960
attr interpolationmode none
attr title "packet popped, sum(packetBytes)"
statistic TARPNetwork.node[4].wlan[0].mac.queue queueingTime:histogram
field count 598
field mean 0
field stddev 0
field min 0
field max 0
field sum 0
field sqrsum 0
attr interpolationmode none
attr source queueingTime(packetPopped)
attr title "queueing times, histogram"
attr unit s
bin	-inf	0
bin	-0.5	0
bin	-0.48	0
bin	-0.46	0
bin	-0.44	0
bin	-0.42	0
bin	-0.4	0
bin	-0.38	0
bin	-0.36	0
bin	-0.34	0
bin	-0.32	0
bin	-0.3	0
bin	-0.28	0
bin	-0.26	0
bin	-0.24	0
bin	-0.22	0
bin	-0.2	0
bin	-0.18	0
bin	-0.16	0
bin	-0.14	0
bin	-0.12	0
bin	-0.1	0
bin	-0.08	0
bin	-0.06	0
bin	-0.04	0
bin	-0.02	0
bin	0	598
bin	0.02	0
bin	0.04	0
bin	0.06	0
bin	0.08	0
bin	0.1	0
bin	0.12	0
bin	0.14	0
bin	0.16	0
bin	0.18	0
bin	0.2	0
bin	0.22	0
bin	0.24	0
bin	0.26	0
bin	0.28	0
bin	0.3	0
bin	0.32	0
bin	0.34	0
bin	0.36	0
bin	0.38	0
bin	0.4	0
bin	0.42	0
bin	0.44	0
bin	0.46	0
bin	0.48	0
bin	0.5	0
scalar TARPNetwork.node[4].wlan[0].mac.queue queueLength:max 1
attr interpolationmode sample-hold
attr source "count(packetPushed) - count(packetPopped) - count(packetRemoved) - count(packetDropped)"
attr title "queue length, max"
scalar TARPNetwork.node[4].wlan[0].mac.queue queueLength:timeavg 0
attr interpolationmode sample-hold
attr source "count(packetPushed) - count(packetPopped) - count(packetRemoved) - count(packetDropped)"
attr title "queue length, timeavg"
scalar TARPNetwork.node[4].wlan[0].mac.queue packetPushed:count 598
attr interpolationmode none
attr title "packet pushed, count"
scalar TARPNetwork.node[4].wlan[0].mac.queue packetPushed:sum(packetBytes) 609960
attr interpolationmode none
attr title "packet pushed, sum(packetBytes)"
scalar TARPNetwork.node[4].wlan[0].mac.queue packetDropQueueOverflow:count 0
attr interpolationmode none
attr source packetDropReasonIsQueueOverflow(packetDropped)
attr title "packet drops: queue overflow, count"
scalar TARPNetwork.node[4].wlan[0].mac.queue packetDropQueueOverflow:sum(packetBytes) 0
attr interpolationmode none
attr source packetDropReasonIsQueueOverflow(packetDropped)
attr title "packet drops: queue overflow, sum(packetBytes)"
scalar TARPNetwork.node[4].wlan[0].mac.queue packetRemoved:count 0
attr interpolationmode none
attr title "packets removed, count"
scalar TARPNetwork.node[4].wlan[0].mac.queue packetRemoved:sum(packetBytes) 0
attr interpolationmode none
attr title "packets removed, sum(packetBytes)"
scalar TARPNetwork.node[4].wlan[0].mac rcvdPkFromLl:count 1794
attr interpolationmode none
attr source packetReceivedFromLower
attr title "packets received from lower layer, count"
scalar TARPNetwork.node[4].wlan[0].mac rcvdPkFromLl:sum(packetBytes) 1858584
attr interpolationmode none
attr source packetReceivedFromLower
attr title "packets received from lower layer, sum(packetBytes)"
scalar TARPNetwork.node[4].wlan[0].mac sentDownPk:count 598
attr interpolationmode none
attr source packetSentToLower
attr title "packets sent to lower layer, count"
scalar TARPNetwork.node[4].wlan[0].mac sentDownPk:sum(packetBytes) 619528
attr interpolationmode none
attr source packetSentToLower
attr title "packets sent to lower layer, sum(packetBytes)"
scalar TARPNetwork.node[4].wlan[0].mac rcvdPkFromHl:count 598
attr interpolationmode none
attr source packetReceivedFromUpper
attr title "packets received from higher layer, count"
scalar TARPNetwork.node[4].wlan[0].mac rcvdPkFromHl:sum(packetBytes) 609960
attr interpolationmode none
attr source packetReceivedFromUpper
attr title "packets received from higher layer, sum(packetBytes)"
scalar TARPNetwork.node[4].wlan[0].mac passedUpPk:count 1794
attr interpolationmode none
attr source packetSentToUpper
attr title "packets passed to higher layer, count"
scalar TARPNetwork.node[4].wlan[0].mac passedUpPk:sum(packetBytes) 1829880
attr interpolationmode none
attr source packetSentToUpper
attr title "packets passed to higher layer, sum(packetBytes)"
scalar TARPNetwork.node[4].wlan[0].mac packetDropIncorrectlyReceived:count 0
attr interpolationmode none
attr source packetDropReasonIsIncorrectlyReceived(packetDropped)
attr title "packet drop: incorrectly received, count"
scalar TARPNetwork.node[4].wlan[0].mac packetDropIncorrectlyReceived:sum(packetBytes) 0
attr interpolationmode none
attr source packetDropReasonIsIncorrectlyReceived(packetDropped)
attr title "packet drop: incorrectly received, sum(packetBytes)"
scalar TARPNetwork.node[4].wlan[0].mac packetDropInterfaceDown:count 0
attr interpolationmode none
attr source packetDropReasonIsInterfaceDown(packetDropped)
attr title "packet drop: interface down, count"
scalar TARPNetwork.node[4].wlan[0].mac packetDropInterfaceDown:sum(packetBytes) 0
attr interpolationmode none
attr source packetDropReasonIsInterfaceDown(packetDropped)
attr title "packet drop: interface down, sum(packetBytes)"
scalar TARPNetwork.node[4].wlan[0].mac packetDropNotAddressedToUs:count 0
attr interpolationmode none
attr source packetDropReasonIsNotAddressedToUs(packetDropped)
attr title "packet drop: not addressed to us, count"
scalar TARPNetwork.node[4].wlan[0].mac packetDropNotAddressedToUs:sum(packetBytes) 0
attr interpolationmode none
attr source packetDropReasonIsNotAddressedToUs(packetDropped)
attr title "packet drop: not addressed to us, sum(packetBytes)"
scalar TARPNetwork.node[4].wlan[0].mac linkBroken:count 0
attr interpolationmode none
attr source linkBroken
attr title "link break, count"
statistic TARPNetwork.node[4].wlan[0].radio minSnir:histogram
field count 0
field mean nan
field stddev nan
field min nan
field max nan
field sum 0
field sqrsum 0
attr source minimumSnir(packetSentToUpper)
attr title "Min SNIR, histogram"
bin	-inf	0
bin	0	0
bin	1	0
statistic TARPNetwork.node[4].wlan[0].radio packetErrorRate:histogram
field count 1794
field mean 0.83333333333333
field stddev 0.37278190758511
field min 0
field max 1
field sum 1495
field sqrsum 1495
attr source packetErrorRate(packetSentToUpper)
attr title "Packet error rate, histogram"
bin	-inf	0
bin	0	299
bin	1	1495
bin	2	0
statistic TARPNetwork.node[4].wlan[0].radio bitErrorRate:histogram
field count 1794
field mean 0.83333333333333
field stddev 0.37278190758511
field min 0
field max 1
field sum 1495
field sqrsum 1495
attr source bitErrorRate(packetSentToUpper)
attr title "Bit error rate, histogram"
bin	-inf	0
bin	0	299
bin	1	1495
bin	2	0
statistic TARPNetwork.node[4].wlan[0].radio symbolErrorRate:histogram
field count 1794
field mean 0.83333333333333
field stddev 0.37278190758511
field min 0
field max 1
field sum 1495
field sqrsum 1495
attr source symbolErrorRate(packetSentToUpper)
attr title "Symbol error rate, histogram"
bin	-inf	0
bin	0	299
bin	1	1495
bin	2	0
scalar TARPNetwork.node[4].wlan[0].radio transmissionState:count 1197
attr interpolationmode sample-hold
attr source transmissionStateChanged
attr title "Radio transmission state, count"
scalar TARPNetwork.node[4].wlan[0].radio receptionState:count 4785
attr interpolationmode sample-hold
attr source receptionStateChanged
attr title "Radio reception state, count"
scalar TARPNetwork.node[4].wlan[0].radio radioMode:count 3
attr interpolationmode sample-hold
attr source radioModeChanged
attr title "Radio mode, count"
scalar TARPNetwork.node[4].generic.np nbDataPacketsReceived 0
scalar TARPNetwork.node[4].generic.np nbDataPacketsSent 0
scalar TARPNetwork.node[4].generic.np nbDataPacketsForwarded 598
scalar TARPNetwork.node[4].generic.np meanNbHops 0
scalar TARPNetwork.node[4].generic.np nbSpdDrops 0
scalar TARPNetwork.node[4].udp packetReceived:count 0
attr interpolationmode none
attr source packetReceived
attr title "packets received, count"
scalar TARPNetwork.node[4].udp packetReceived:sum(packetBytes) 0
attr interpolationmode none
attr source packetReceived
attr title "packets received, sum(packetBytes)"
scalar TARPNetwork.node[4].udp packetSent:count 0
attr interpolationmode none
attr source packetSent
attr title "packets sent, count"
scalar TARPNetwork.node[4].udp packetSent:sum(packetBytes) 0
attr interpolationmode none
attr source packetSent
attr title "packets sent, sum(packetBytes)"
scalar TARPNetwork.node[4].udp passedUpPk:count 0
attr interpolationmode none
attr source packetSentToUpper
attr title "packets passed up, count"
scalar TARPNetwork.node[4].udp droppedPkWrongPort:count 0
attr interpolationmode none
attr source packetDropReasonIsNoPortFound(packetDropped)
attr title "packets dropped (wrong port), count"
scalar TARPNetwork.node[4].udp droppedPkBadChecksum:count 0
attr interpolationmode none
attr source packetDropReasonIsIncorrectlyReceived(packetDropped)
attr title "packets dropped (checksum error), count"
scalar TARPNetwork.node[5].lo[0].lo rcvdPkFromHl:count 0
attr interpolationmode none
attr source packetReceivedFromUpper
attr title "packets received from higher layer, count"
scalar TARPNetwork.node[5].lo[0].lo rcvdPkFromHl:sum(packetBytes) 0
attr interpolationmode none
attr source packetReceivedFromUpper
attr title "packets received from higher layer, sum(packetBytes)"
scalar TARPNetwork.node[5].lo[0].lo passedUpPk:count 0
attr interpolationmode none
attr source packetSentToUpper
attr title "packets passed to higher layer, count"
scalar TARPNetwork.node[5].lo[0].lo passedUpPk:sum(packetBytes) 0
attr interpolationmode none
attr source packetSentToUpper
attr title "packets passed to higher layer, sum(packetBytes)"
scalar TARPNetwork.node[5].wlan[0].mac.queue packetPopped:count 299
attr interpolationmode none
attr title "packet popped, count"
scalar TARPNetwork.node[5].wlan[0].mac.queue packetPopped:sum(packetBytes) 304980
attr interpolationmode none
attr title "packet popped, sum(packetBytes)"
statistic TARPNetwork.node[5].wlan[0].mac.queue queueingTime:histogram
field count 299
field mean 0
field stddev 0
field min 0
field max 0
field sum 0
field sqrsum 0
attr interpolationmode none
attr source queueingTime(packetPopped)
attr title "queueing times, histogram"
attr unit s
bin	-inf	0
bin	-0.5	0
bin	-0.48	0
bin	-0.46	0
bin	-0.44	0
bin	-0.42	0
bin	-0.4	0
bin	-0.38	0
bin	-0.36	0
bin	-0.34	0
bin	-0.32	0
bin	-0.3	0
bin	-0.28	0
bin	-0.26	0
bin	-0.24	0
bin	-0.22	0
bin	-0.2	0
bin	-0.18	0
bin	-0.16	0
bin	-0.14	0
bin	-0.12	0
bin	-0.1	0
bin	-0.08	0
bin	-0.06	0
bin	-0.04	0
bin	-0.02	0
bin	0	299
bin	0.02	0
bin	0.04	0
bin	0.06	0
bin	0.08	0
bin	0.1	0
bin	0.12	0
bin	0.14	0
bin	0.16	0
bin	0.18	0
bin	0.2	0
bin	0.22	0
bin	0.24	0
bin	0.26	0
bin	0.28	0
bin	0.3	0
bin	0.32	0
bin	0.34	0
bin	0.36	0
bin	0.38	0
bin	0.4	0
bin	0.42	0
bin	0.44	0
bin	0.46	0
bin	0.48	0
bin	0.5	0
scalar TARPNetwork.node[5].wlan[0].mac.queue queueLength:max 1
attr interpolationmode sample-hold
attr source "count(packetPushed) - count(packetPopped) - count(packetRemoved) - count(packetDropped)"
attr title "queue length, max"
scalar TARPNetwork.node[5].wlan[0].mac.queue queueLength:timeavg 0
attr interpolationmode sample-hold
attr source "count(packetPushed) - count(packetPopped) - count(packetRemoved) - count(packetDropped)"
attr title "queue length, timeavg"
scalar TARPNetwork.node[5].wlan[0].mac.queue packetPushed:count 299
attr interpolationmode none
attr title "packet pushed, count"
scalar TARPNetwork.node[5].wlan[0].mac.queue packetPushed:sum(packetBytes) 304980
attr interpolationmode none
attr title "packet pushed, sum(packetBytes)"
scalar TARPNetwork.node[5].wlan[0].mac.queue packetDropQueueOverflow:count 0
attr interpolationmode none
attr source packetDropReasonIsQueueOverflow(packetDropped)
attr title "packet drops: queue overflow, count"
scalar TARPNetwork.node[5].wlan[0].mac.queue packetDropQueueOverflow:sum(packetBytes) 0
attr interpolationmode none
attr source packetDropReasonIsQueueOverflow(packetDropped)
attr title "packet drops: queue overflow, sum(packetBytes)"
scalar TARPNetwork.node[5].wlan[0].mac.queue packetRemoved:count 0
attr interpolationmode none
attr title "packets removed, count"
scalar TARPNetwork.node[5].wlan[0].mac.queue packetRemoved:sum(packetBytes) 0
attr interpolationmode none
attr title "packets removed, sum(packetBytes)"
scalar TARPNetwork.node[5].wlan[0].mac rcvdPkFromLl:count 598
attr interpolationmode none
attr source packetReceivedFromLower
attr title "packets received from lower layer, count"
scalar TARPNetwork.node[5].wlan[0].mac rcvdPkFromLl:sum(packetBytes) 619528
attr interpolationmode none
attr source packetReceivedFromLower
attr title "packets received from lower layer, sum(packetBytes)"
scalar TARPNetwork.node[5].wlan[0].mac sentDownPk:count 299
attr interpolationmode none
attr source packetSentToLower
attr title "packets sent to lower layer, count"
scalar TARPNetwork.node[5].wlan[0].mac sentDownPk:sum(packetBytes) 309764
attr interpolationmode none
attr source packetSentToLower
attr title "packets sent to lower layer, sum(packetBytes)"
scalar TARPNetwork.node[5].wlan[0].mac rcvdPkFromHl:count 299
attr interpolationmode none
attr source packetReceivedFromUpper
attr title "packets received from higher layer, count"
scalar TARPNetwork.node[5].wlan[0].mac rcvdPkFromHl:sum(packetBytes) 304980
attr interpolationmode none
attr source packetReceivedFromUpper
attr title "packets received from higher layer, sum(packetBytes)"
scalar TARPNetwork.node[5].wlan[0].mac passedUpPk:count 598
attr interpolationmode none
attr source packetSentToUpper
attr title "packets passed to higher layer, count"
scalar TARPNetwork.node[5].wlan[0].mac passedUpPk:sum(packetBytes) 609960
attr interpolationmode none
attr source packetSentToUpper
attr title "packets passed to higher layer, sum(packetBytes)"
scalar TARPNetwork.node[5].wlan[0].mac packetDropIncorrectlyReceived:count 0
attr interpolationmode none
attr source packetDropReasonIsIncorrectlyReceived(packetDropped)
attr title "packet drop: incorrectly received, count"
scalar TARPNetwork.node[5].wlan[0].mac packetDropIncorrectlyReceived:sum(packetBytes) 0
attr interpolationmode none
attr source packetDropReasonIsIncorrectlyReceived(packetDropped)
attr title "packet drop: incorrectly received, sum(packetBytes)"
scalar TARPNetwork.node[5].wlan[0].mac packetDropInterfaceDown:count 0
attr interpolationmode none
attr source packetDropReasonIsInterfaceDown(packetDropped)
attr title "packet drop: interface down, count"
scalar TARPNetwork.node[5].wlan[0].mac packetDropInterfaceDown:sum(packetBytes) 0
attr interpolationmode none
attr source packetDropReasonIsInterfaceDown(packetDropped)
attr title "packet drop: interface down, sum(packetBytes)"
scalar TARPNetwork.node[5].wlan[0].mac packetDropNotAddressedToUs:count 0
attr interpolationmode none
attr source packetDropReasonIsNotAddressedToUs(packetDropped)
attr title "packet drop: not addressed to us, count"
scalar TARPNetwork.node[5].wlan[0].mac packetDropNotAddressedToUs:sum(packetBytes) 0
attr interpolationmode none
attr source packetDropReasonIsNotAddressedToUs(packetDropped)
attr title "packet drop: not addressed to us, sum(packetBytes)"
scalar TARPNetwork.node[5].wlan[0].mac linkBroken:count 0
attr interpolationmode none
attr source linkBroken
attr title "link break, count"
statistic TARPNetwork.node[5].wlan[0].radio minSnir:histogram
field count 0
field mean nan
field stddev nan
field min nan
field max nan
field sum 0
field sqrsum 0
attr source minimumSnir(packetSentToUpper)
attr title "Min SNIR, histogram"
bin	-inf	0
bin	0	0
bin	1	0
statistic TARPNetwork.node[5].wlan[0].radio packetErrorRate:histogram
field count 598
field mean 1
field stddev 0
field min 1
field max 1
field sum 598
field sqrsum 598
attr source packetErrorRate(packetSentToUpper)
attr title "Packet error rate, histogram"
bin	-inf	0
bin	0	0
bin	1	598
bin	2	0
statistic TARPNetwork.node[5].wlan[0].radio bitErrorRate:histogram
field count 598
field mean 1
field stddev 0
field min 1
field max 1
field sum 598
field sqrsum 598
attr source bitErrorRate(packetSentToUpper)
attr title "Bit error rate, histogram"
bin	-inf	0
bin	0	0
bin	1	598
bin	2	0
statistic TARPNetwork.node[5].wlan[0].radio symbolErrorRate:histogram
field count 598
field mean 1
field stddev 0
field min 1
field max 1
field sum 598
field sqrsum 598
attr source symbolErrorRate(packetSentToUpper)
attr title "Symbol error rate, histogram"
bin	-inf	0
bin	0	0
bin	1	598
bin	2	0
scalar TARPNetwork.node[5].wlan[0].radio transmissionState:count 599
attr interpolationmode sample-hold
attr source transmissionStateChanged
attr title "Radio transmission state, count"
scalar TARPNetwork.node[5].wlan[0].radio receptionState:count 1795
attr interpolationmode sample-hold
attr source receptionStateChanged
attr title "Radio reception state, count"
scalar TARPNetwork.node[5].wlan[0].radio radioMode:count 3
attr interpolationmode sample-hold
attr source radioModeChanged
attr title "Radio mode, count"
scalar TARPNetwork.node[5].generic.np nbDataPacketsReceived 0
scalar TARPNetwork.node[5].generic.np nbDataPacketsSent 0
scalar TARPNetwork.node[5].generic.np nbDataPacketsForwarded 299
scalar TARPNetwork.node[5].generic.np meanNbHops 0
scalar TARPNetwork.node[5].generic.np nbSpdDrops 0
scalar TARPNetwork.node[5].udp packetReceived:count 0
attr interpolationmode none
attr source packetReceived
attr title "packets received, count"
scalar TARPNetwork.node[5].udp packetReceived:sum(packetBytes) 0
attr interpolationmode none
attr source packetReceived
attr title "packets received, sum(packetBytes)"
scalar TARPNetwork.node[5].udp packetSent:count 0
attr interpolationmode none
attr source packetSent
attr title "packets sent, count"
scalar TARPNetwork.node[5].udp packetSent:sum(packetBytes) 0
attr interpolationmode none
attr source packetSent
attr title "packets sent, sum(packetBytes)"
scalar TARPNetwork.node[5].udp passedUpPk:count 0
attr interpolationmode none
attr source packetSentToUpper
attr title "packets passed up, count"
scalar TARPNetwork.node[5].udp droppedPkWrongPort:count 0
attr interpolationmode none
attr source packetDropReasonIsNoPortFound(packetDropped)
attr title "packets dropped (wrong port), count"
scalar TARPNetwork.node[5].udp droppedPkBadChecksum:count 0
attr interpolationmode none
attr source packetDropReasonIsIncorrectlyReceived(packetDropped)
attr title "packets dropped (checksum error), count"
scalar TARPNetwork.node[6].lo[0].lo rcvdPkFromHl:count 0
attr interpolationmode none
attr source packetReceivedFromUpper
attr title "packets received from higher layer, count"
scalar TARPNetwork.node[6].lo[0].lo rcvdPkFromHl:sum(packetBytes) 0
attr interpolationmode none
attr source packetReceivedFromUpper
attr title "packets received from higher layer, sum(packetBytes)"
scalar TARPNetwork.node[6].lo[0].lo passedUpPk:count 0
attr interpolationmode none
attr source packetSentToUpper
attr title "packets passed to higher layer, count"
scalar TARPNetwork.node[6].lo[0].lo passedUpPk:sum(packetBytes) 0
attr interpolationmode none
attr source packetSentToUpper
attr title "packets passed to higher layer, sum(packetBytes)"
scalar TARPNetwork.node[6].wlan[0].mac.queue packetPopped:count 2
attr interpolationmode none
attr title "packet popped, count"
scalar TARPNetwork.node[6].wlan[0].mac.queue packetPopped:sum(packetBytes) 2040
attr interpolationmode none
attr title "packet popped, sum(packetBytes)"
statistic TARPNetwork.node[6].wlan[0].mac.queue queueingTime:histogram
field count 2
field mean 0
field stddev 0
field min 0
field max 0
field sum 0
field sqrsum 0
attr interpolationmode none
attr source queueingTime(packetPopped)
attr title "queueing times, histogram"
attr unit s
bin	-inf	0
bin	-0.5	0
bin	-0.48	0
bin	-0.46	0
bin	-0.44	0
bin	-0.42	0
bin	-0.4	0
bin	-0.38	0
bin	-0.36	0
bin	-0.34	0
bin	-0.32	0
bin	-0.3	0
bin	-0.28	0
bin	-0.26	0
bin	-0.24	0
bin	-0.22	0
bin	-0.2	0
bin	-0.18	0
bin	-0.16	0
bin	-0.14	0
bin	-0.12	0
bin	-0.1	0
bin	-0.08	0
bin	-0.06	0
bin	-0.04	0
bin	-0.02	0
bin	0	2
bin	0.02	0
bin	0.04	0
bin	0.06	0
bin	0.08	0
bin	0.1	0
bin	0.12	0
bin	0.14	0
bin	0.16	0
bin	0.18	0
bin	0.2	0
bin	0.22	0
bin	0.24	0
bin	0.26	0
bin	0.28	0
bin	0.3	0
bin	0.32	0
bin	0.34	0
bin	0.36	0
bin	0.38	0
bin	0.4	0
bin	0.42	0
bin	0.44	0
bin	0.46	0
bin	0.48	0
bin	0.5	0
scalar TARPNetwork.node[6].wlan[0].mac.queue queueLength:max 1
attr interpolationmode sample-hold
attr source "count(packetPushed) - count(packetPopped) - count(packetRemoved) - count(packetDropped)"
attr title "queue length, max"
scalar TARPNetwork.node[6].wlan[0].mac.queue queueLength:timeavg 0
attr interpolationmode sample-hold
attr source "count(packetPushed) - count(packetPopped) - count(packetRemoved) - count(packetDropped)"
attr title "queue length, timeavg"
scalar TARPNetwork.node[6].wlan[0].mac.queue packetPushed:count 2
attr interpolationmode none
attr title "packet pushed, count"
scalar TARPNetwork.node[6].wlan[0].mac.queue packetPushed:sum(packetBytes) 2040
attr interpolationmode none
attr title "packet pushed, sum(packetBytes)"
scalar TARPNetwork.node[6].wlan[0].mac.queue packetDropQueueOverflow:count 0
attr interpolationmode none
attr source packetDropReasonIsQueueOverflow(packetDropped)
attr title "packet drops: queue overflow, count"
scalar TARPNetwork.node[6].wlan[0].mac.queue packetDropQueueOverflow:sum(packetBytes) 0
attr interpolationmode none
attr source packetDropReasonIsQueueOverflow(packetDropped)
attr title "packet drops: queue overflow, sum(packetBytes)"
scalar TARPNetwork.node[6].wlan[0].mac.queue packetRemoved:count 0
attr interpolationmode none
attr title "packets removed, count"
scalar TARPNetwork.node[6].wlan[0].mac.queue packetRemoved:sum(packetBytes) 0
attr interpolationmode none
attr title "packets removed, sum(packetBytes)"
scalar TARPNetwork.node[6].wlan[0].mac rcvdPkFromLl:count 42
attr interpolationmode none
attr source packetReceivedFromLower
attr title "packets received from lower layer, count"
scalar TARPNetwork.node[6].wlan[0].mac rcvdPkFromLl:sum(packetBytes) 43512
attr interpolationmode none
attr source packetReceivedFromLower
attr title "packets received from lower layer, sum(packetBytes)"
scalar TARPNetwork.node[6].wlan[0].mac sentDownPk:count 2
attr interpolationmode none
attr source packetSentToLower
attr title "packets sent to lower layer, count"
scalar TARPNetwork.node[6].wlan[0].mac sentDownPk:sum(packetBytes) 2072
attr interpolationmode none
attr source packetSentToLower
attr title "packets sent to lower layer, sum(packetBytes)"
scalar TARPNetwork.node[6].wlan[0].mac rcvdPkFromHl:count 2
attr interpolationmode none
attr source packetReceivedFromUpper
attr title "packets received from higher layer, count"
scalar TARPNetwork.node[6].wlan[0].mac rcvdPkFromHl:sum(packetBytes) 2040
attr interpolationmode none
attr source packetReceivedFromUpper
attr title "packets received from higher layer, sum(packetBytes)"
scalar TARPNetwork.node[6].wlan[0].mac passedUpPk:count 42
attr interpolationmode none
attr source packetSentToUpper
attr title "packets passed to higher layer, count"
scalar TARPNetwork.node[6].wlan[0].mac passedUpPk:sum(packetBytes) 42840
attr interpolationmode none
attr source packetSentToUpper
attr title "packets passed to higher layer, sum(packetBytes)"
scalar TARPNetwork.node[6].wlan[0].mac packetDropIncorrectlyReceived:count 0
attr interpolationmode none
attr source packetDropReasonIsIncorrectlyReceived(packetDropped)
attr title "packet drop: incorrectly received, count"
scalar TARPNetwork.node[6].wlan[0].mac packetDropIncorrectlyReceived:sum(packetBytes) 0
attr interpolationmode none
attr source packetDropReasonIsIncorrectlyReceived(packetDropped)
attr title "packet drop: incorrectly received, sum(packetBytes)"
scalar TARPNetwork.node[6].wlan[0].mac packetDropInterfaceDown:count 0
attr interpolationmode none
attr source packetDropReasonIsInterfaceDown(packetDropped)
attr title "packet drop: interface down, count"
scalar TARPNetwork.node[6].wlan[0].mac packetDropInterfaceDown:sum(packetBytes) 0
attr interpolationmode none
attr source packetDropReasonIsInterfaceDown(packetDropped)
attr title "packet drop: interface down, sum(packetBytes)"
scalar TARPNetwork.node[6].wlan[0].mac packetDropNotAddressedToUs:count 0
attr interpolationmode none
attr source packetDropReasonIsNotAddressedToUs(packetDropped)
attr title "packet drop: not addressed to us, count"
scalar TARPNetwork.node[6].wlan[0].mac packetDropNotAddressedToUs:sum(packetBytes) 0
attr interpolationmode none
attr source packetDropReasonIsNotAddressedToUs(packetDropped)
attr title "packet drop: not addressed to us, sum(packetBytes)"
scalar TARPNetwork.node[6].wlan[0].mac linkBroken:count 0
attr interpolationmode none
attr source linkBroken
attr title "link break, count"
statistic TARPNetwork.node[6].wlan[0].radio minSnir:histogram
field count 0
field mean nan
field stddev nan
field min nan
field max nan
field sum 0
field sqrsum 0
attr source minimumSnir(packetSentToUpper)
attr title "Min SNIR, histogram"
bin	-inf	0
bin	0	0
bin	1	0
statistic TARPNetwork.node[6].wlan[0].radio packetErrorRate:histogram
field count 42
field mean 1
field stddev 0
field min 1
field max 1
field sum 42
field sqrsum 42
attr source packetErrorRate(packetSentToUpper)
attr title "Packet error rate, histogram"
bin	-inf	0
bin	0	0
bin	1	42
bin	2	0
statistic TARPNetwork.node[6].wlan[0].radio bitErrorRate:histogram
field count 42
field mean 1
field stddev 0
field min 1
field max 1
field sum 42
field sqrsum 42
attr source bitErrorRate(packetSentToUpper)
attr title "Bit error rate, histogram"
bin	-inf	0
bin	0	0
bin	1	42
bin	2	0
statistic TARPNetwork.node[6].wlan[0].radio symbolErrorRate:histogram
field count 42
field mean 1
field stddev 0
field min 1
field max 1
field sum 42
field sqrsum 42
attr source symbolErrorRate(packetSentToUpper)
attr title "Symbol error rate, histogram"
bin	-inf	0
bin	0	0
bin	1	42
bin	2	0
scalar TARPNetwork.node[6].wlan[0].radio transmissionState:count 5
attr interpolationmode sample-hold
attr source transmissionStateChanged
attr title "Radio transmission state, count"
scalar TARPNetwork.node[6].wlan[0].radio receptionState:count 125
attr interpolationmode sample-hold
attr source receptionStateChanged
attr title "Radio reception state, count"
scalar TARPNetwork.node[6].wlan[0].radio radioMode:count 3
attr interpolationmode sample-hold
attr source radioModeChanged
attr title "Radio mode, count"
scalar TARPNetwork.node[6].generic.np nbDataPacketsReceived 0
scalar TARPNetwork.node[6].generic.np nbDataPacketsSent 0
scalar TARPNetwork.node[6].generic.np nbDataPacketsForwarded 2
scalar TARPNetwork.node[6].generic.np meanNbHops 0
scalar TARPNetwork.node[6].generic.np nbSpdDrops 38
scalar TARPNetwork.node[6].udp packetReceived:count 0
attr interpolationmode none
attr source packetReceived
attr title "packets received, count"
scalar TARPNetwork.node[6].udp packetReceived:sum(packetBytes) 0
attr interpolationmode none
attr source packetReceived
attr title "packets received, sum(packetBytes)"
scalar TARPNetwork.node[6].udp packetSent:count 0
attr interpolationmode none
attr source packetSent
attr title "packets sent, count"
scalar TARPNetwork.node[6].udp packetSent:sum(packetBytes) 0
attr interpolationmode none
attr source packetSent
attr title "packets sent, sum(packetBytes)"
scalar TARPNetwork.node[6].udp passedUpPk:count 0
attr interpolationmode none
attr source packetSentToUpper
attr title "packets passed up, count"
scalar TARPNetwork.node[6].udp droppedPkWrongPort:count 0
attr interpolationmode none
attr source packetDropReasonIsNoPortFound(packetDropped)
attr title "packets dropped (wrong port), count"
scalar TARPNetwork.node[6].udp droppedPkBadChecksum:count 0
attr interpolationmode none
attr source packetDropReasonIsIncorrectlyReceived(packetDropped)
attr title "packets dropped (checksum error), count"
scalar TARPNetwork.node[7].lo[0].lo rcvdPkFromHl:count 0
attr interpolationmode none
attr source packetReceivedFromUpper
attr title "packets received from higher layer, count"
scalar TARPNetwork.node[7].lo[0].lo rcvdPkFromHl:sum(packetBytes) 0
attr interpolationmode none
attr source packetReceivedFromUpper
attr title "packets received from higher layer, sum(packetBytes)"
scalar TARPNetwork.node[7].lo[0].lo passedUpPk:count 0
attr interpolationmode none
attr source packetSentToUpper
attr title "packets passed to higher layer, count"
scalar TARPNetwork.node[7].lo[0].lo passedUpPk:sum(packetBytes) 0
attr interpolationmode none
attr source packetSentToUpper
attr title "packets passed to higher layer, sum(packetBytes)"
scalar TARPNetwork.node[7].wlan[0].mac.queue packetPopped:count 308
attr interpolationmode none
attr title "packet popped, count"
scalar TARPNetwork.node[7].wlan[0].mac.queue packetPopped:sum(packetBytes) 314160
attr interpolationmode none
attr title "packet popped, sum(packetBytes)"
statistic TARPNetwork.node[7].wlan[0].mac.queue queueingTime:histogram
field count 308
field mean 0
field stddev 0
field min 0
field max 0
field sum 0
field sqrsum 0
attr interpolationmode none
attr source queueingTime(packetPopped)
attr title "queueing times, histogram"
attr unit s
bin	-inf	0
bin	-0.5	0
bin	-0.48	0
bin	-0.46	0
bin	-0.44	0
bin	-0.42	0
bin	-0.4	0
bin	-0.38	0
bin	-0.36	0
bin	-0.34	0
bin	-0.32	0
bin	-0.3	0
bin	-0.28	0
bin	-0.26	0
bin	-0.24	0
bin	-0.22	0
bin	-0.2	0
bin	-0.18	0
bin	-0.16	0
bin	-0.14	0
bin	-0.12	0
bin	-0.1	0
bin	-0.08	0
bin	-0.06	0
bin	-0.04	0
bin	-0.02	0
bin	0	308
bin	0.02	0
bin	0.04	0
bin	0.06	0
bin	0.08	0
bin	0.1	0
bin	0.12	0
bin	0.14	0
bin	0.16	0
bin	0.18	0
bin	0.2	0
bin	0.22	0
bin	0.24	0
bin	0.26	0
bin	0.28	0
bin	0.3	0
bin	0.32	0
bin	0.34	0
bin	0.36	0
bin	0.38	0
bin	0.4	0
bin	0.42	0
bin	0.44	0
bin	0.46	0
bin	0.48	0
bin	0.5	0
scalar TARPNetwork.node[7].wlan[0].mac.queue queueLength:max 1
attr interpolationmode sample-hold
attr source "count(packetPushed) - count(packetPopped) - count(packetRemoved) - count(packetDropped)"
attr title "queue length, max"
scalar TARPNetwork.node[7].wlan[0].mac.queue queueLength:timeavg 0
attr interpolationmode sample-hold
attr source "count(packetPushed) - count(packetPopped) - count(packetRemoved) - count(packetDropped)"
attr title "queue length, timeavg"
scalar TARPNetwork.node[7].wlan[0].mac.queue packetPushed:count 308
attr interpolationmode none
attr title "packet pushed, count"
scalar TARPNetwork.node[7].wlan[0].mac.queue packetPushed:sum(packetBytes) 314160
attr interpolationmode none
attr title "packet pushed, sum(packetBytes)"
scalar TARPNetwork.node[7].wlan[0].mac.queue packetDropQueueOverflow:count 0
attr interpolationmode none
attr source packetDropReasonIsQueueOverflow(packetDropped)
attr title "packet drops: queue overflow, count"
scalar TARPNetwork.node[7].wlan[0].mac.queue packetDropQueueOverflow:sum(packetBytes) 0
attr interpolationmode none
attr source packetDropReasonIsQueueOverflow(packetDropped)
attr title "packet drops: queue overflow, sum(packetBytes)"
scalar TARPNetwork.node[7].wlan[0].mac.queue packetRemoved:count 0
attr interpolationmode none
attr title "packets removed, count"
scalar TARPNetwork.node[7].wlan[0].mac.queue packetRemoved:sum(packetBytes) 0
attr interpolationmode none
attr title "packets removed, sum(packetBytes)"
scalar TARPNetwork.node[7].wlan[0].mac rcvdPkFromLl:count 906
attr interpolationmode none
attr source packetReceivedFromLower
attr title "packets received from lower layer, count"
scalar TARPNetwork.node[7].wlan[0].mac rcvdPkFromLl:sum(packetBytes) 938616
attr interpolationmode none
attr source packetReceivedFromLower
attr title "packets received from lower layer, sum(packetBytes)"
scalar TARPNetwork.node[7].wlan[0].mac sentDownPk:count 308
attr interpolationmode none
attr source packetSentToLower
attr title "packets sent to lower layer, count"
scalar TARPNetwork.node[7].wlan[0].mac sentDownPk:sum(packetBytes) 319088
attr interpolationmode none
attr source packetSentToLower
attr title "packets sent to lower layer, sum(packetBytes)"
scalar TARPNetwork.node[7].wlan[0].mac rcvdPkFromHl:count 308
attr interpolationmode none
attr source packetReceivedFromUpper
attr title "packets received from higher layer, count"
scalar TARPNetwork.node[7].wlan[0].mac rcvdPkFromHl:sum(packetBytes) 314160
attr interpolationmode none
attr source packetReceivedFromUpper
attr title "packets received from higher layer, sum(packetBytes)"
scalar TARPNetwork.node[7].wlan[0].mac passedUpPk:count 906
attr interpolationmode none
attr source packetSentToUpper
attr title "packets passed to higher layer, count"
scalar TARPNetwork.node[7].wlan[0].mac passedUpPk:sum(packetBytes) 924120
attr interpolationmode none
attr source packetSentToUpper
attr title "packets passed to higher layer, sum(packetBytes)"
scalar TARPNetwork.node[7].wlan[0].mac packetDropIncorrectlyReceived:count 0
attr interpolationmode none
attr source packetDropReasonIsIncorrectlyReceived(packetDropped)
attr title "packet drop: incorrectly received, count"
scalar TARPNetwork.node[7].wlan[0].mac packetDropIncorrectlyReceived:sum(packetBytes) 0
attr interpolationmode none
attr source packetDropReasonIsIncorrectlyReceived(packetDropped)
attr title "packet drop: incorrectly received, sum(packetBytes)"
scalar TARPNetwork.node[7].wlan[0].mac packetDropInterfaceDown:count 0
attr interpolationmode none
attr source packetDropReasonIsInterfaceDown(packetDropped)
attr title "packet drop: interface down, count"
scalar TARPNetwork.node[7].wlan[0].mac packetDropInterfaceDown:sum(packetBytes) 0
attr interpolationmode none
attr source packetDropReasonIsInterfaceDown(packetDropped)
attr title "packet drop: interface down, sum(packetBytes)"
scalar TARPNetwork.node[7].wlan[0].mac packetDropNotAddressedToUs:count 0
attr interpolationmode none
attr source packetDropReasonIsNotAddressedToUs(packetDropped)
attr title "packet drop: not addressed to us, count"
scalar TARPNetwork.node[7].wlan[0].mac packetDropNotAddressedToUs:sum(packetBytes) 0
attr interpolationmode none
attr source packetDropReasonIsNotAddressedToUs(packetDropped)
attr title "packet drop: not addressed to us, sum(packetBytes)"
scalar TARPNetwork.node[7].wlan[0].mac linkBroken:count 0
attr interpolationmode none
attr source linkBroken
attr title "link break, count"
statistic TARPNetwork.node[7].wlan[0].radio minSnir:histogram
field count 0
field mean nan
field stddev nan
field min nan
field max nan
field sum 0
field sqrsum 0
attr source minimumSnir(packetSentToUpper)
attr title "Min SNIR, histogram"
bin	-inf	0
bin	0	0
bin	1	0
statistic TARPNetwork.node[7].wlan[0].radio packetErrorRate:histogram
field count 906
field mean 0.99006622516556
field stddev 0.099226823289925
field min 0
field max 1
field sum 897
field sqrsum 897
attr source packetErrorRate(packetSentToUpper)
attr title "Packet error rate, histogram"
bin	-inf	0
bin	0	9
bin	1	897
bin	2	0
statistic TARPNetwork.node[7].wlan[0].radio bitErrorRate:histogram
field count 906
field mean 0.99006622516556
field stddev 0.099226823289925
field min 0
field max 1
field sum 897
field sqrsum 897
attr source bitErrorRate(packetSentToUpper)
attr title "Bit error rate, histogram"
bin	-inf	0
bin	0	9
bin	1	897
bin	2	0
statistic TARPNetwork.node[7].wlan[0].radio symbolErrorRate:histogram
field count 906
field mean 0.99006622516556
field stddev 0.099226823289925
field min 0
field max 1
field sum 897
field sqrsum 897
attr source symbolErrorRate(packetSentToUpper)
attr title "Symbol error rate, histogram"
bin	-inf	0
bin	0	9
bin	1	897
bin	2	0
scalar TARPNetwork.node[7].wlan[0].radio transmissionState:count 617
attr interpolationmode sample-hold
attr source transmissionStateChanged
attr title "Radio transmission state, count"
scalar TARPNetwork.node[7].wlan[0].radio receptionState:count 1822
attr interpolationmode sample-hold
attr source receptionStateChanged
attr title "Radio reception state, count"
scalar TARPNetwork.node[7].wlan[0].radio radioMode:count 3
attr interpolationmode sample-hold
attr source radioModeChanged
attr title "Radio mode, count"
scalar TARPNetwork.node[7].generic.np nbDataPacketsReceived 0
scalar TARPNetwork.node[7].generic.np nbDataPacketsSent 0
scalar TARPNetwork.node[7].generic.np nbDataPacketsForwarded 308
scalar TARPNetwork.node[7].generic.np meanNbHops 0
scalar TARPNetwork.node[7].generic.np nbSpdDrops 290
scalar TARPNetwork.node[7].udp packetReceived:count 0
attr interpolationmode none
attr source packetReceived
attr title "packets received, count"
scalar TARPNetwork.node[7].udp packetReceived:sum(packetBytes) 0
attr interpolationmode none
attr source packetReceived
attr title "packets received, sum(packetBytes)"
scalar TARPNetwork.node[7].udp packetSent:count 0
attr interpolationmode none
attr source packetSent
attr title "packets sent, count"
scalar TARPNetwork.node[7].udp packetSent:sum(packetBytes) 0
attr interpolationmode none
attr source packetSent
attr title "packets sent, sum(packetBytes)"
scalar TARPNetwork.node[7].udp passedUpPk:count 0
attr interpolationmode none
attr source packetSentToUpper
attr title "packets passed up, count"
scalar TARPNetwork.node[7].udp droppedPkWrongPort:count 0
attr interpolationmode none
attr source packetDropReasonIsNoPortFound(packetDropped)
attr title "packets dropped (wrong port), count"
scalar TARPNetwork.node[7].udp droppedPkBadChecksum:count 0
attr interpolationmode none
attr source packetDropReasonIsIncorrectlyReceived(packetDropped)
attr title "packets dropped (checksum error), count"
scalar TARPNetwork.node[8].lo[0].lo rcvdPkFromHl:count 0
attr interpolationmode none
attr source packetReceivedFromUpper
attr title "packets received from higher layer, count"
scalar TARPNetwork.node[8].lo[0].lo rcvdPkFromHl:sum(packetBytes) 0
attr interpolationmode none
attr source packetReceivedFromUpper
attr title "packets received from higher layer, sum(packetBytes)"
scalar TARPNetwork.node[8].lo[0].lo passedUpPk:count 0
attr interpolationmode none
attr source packetSentToUpper
attr title "packets passed to higher layer, count"
[...]
attr interpolationmode none
attr source packetSent
attr title "packets sent, count"
scalar TARPNetwork.node[57].udp packetSent:sum(packetBytes) 0
attr interpolationmode none
attr source packetSent
attr title "packets sent, sum(packetBytes)"
scalar TARPNetwork.node[57].udp passedUpPk:count 0
attr interpolationmode none
attr source packetSentToUpper
attr title "packets passed up, count"
scalar TARPNetwork.node[57].udp droppedPkWrongPort:count 0
attr interpolationmode none
attr source packetDropReasonIsNoPortFound(packetDropped)
attr title "packets dropped (wrong port), count"
scalar TARPNetwork.node[57].udp droppedPkBadChecksum:count 0
attr interpolationmode none
attr source packetDropReasonIsIncorrectlyReceived(packetDropped)
attr title "packets dropped (checksum error), count"
scalar TARPNetwork.node[58].lo[0].lo rcvdPkFromHl:count 0
attr interpolationmode none
attr source packetReceivedFromUpper
attr title "packets received from higher layer, count"
scalar TARPNetwork.node[58].lo[0].lo rcvdPkFromHl:sum(packetBytes) 0
attr interpolationmode none
attr source packetReceivedFromUpper
attr title "packets received from higher layer, sum(packetBytes)"
scalar TARPNetwork.node[58].lo[0].lo passedUpPk:count 0
attr interpolationmode none
attr source packetSentToUpper
attr title "packets passed to higher layer, count"
scalar TARPNetwork.node[58].lo[0].lo passedUpPk:sum(packetBytes) 0
attr interpolationmode none
attr source packetSentToUpper
attr title "packets passed to higher layer, sum(packetBytes)"
scalar TARPNetwork.node[58].wlan[0].mac.queue packetPopped:count 48
attr interpolationmode none
attr title "packet popped, count"
scalar TARPNetwork.node[58].wlan[0].mac.queue packetPopped:sum(packetBytes) 48960
attr interpolationmode none
attr title "packet popped, sum(packetBytes)"
statistic TARPNetwork.node[58].wlan[0].mac.queue queueingTime:histogram
field count 48
field mean 0
field stddev 0
field min 0
field max 0
field sum 0
field sqrsum 0
attr interpolationmode none
attr source queueingTime(packetPopped)
attr title "queueing times, histogram"
attr unit s
bin	-inf	0
bin	-0.5	0
bin	-0.48	0
bin	-0.46	0
bin	-0.44	0
bin	-0.42	0
bin	-0.4	0
bin	-0.38	0
bin	-0.36	0
bin	-0.34	0
bin	-0.32	0
bin	-0.3	0
bin	-0.28	0
bin	-0.26	0
bin	-0.24	0
bin	-0.22	0
bin	-0.2	0
bin	-0.18	0
bin	-0.16	0
bin	-0.14	0
bin	-0.12	0
bin	-0.1	0
bin	-0.08	0
bin	-0.06	0
bin	-0.04	0
bin	-0.02	0
bin	0	48
bin	0.02	0
bin	0.04	0
bin	0.06	0
bin	0.08	0
bin	0.1	0
bin	0.12	0
bin	0.14	0
bin	0.16	0
bin	0.18	0
bin	0.2	0
bin	0.22	0
bin	0.24	0
bin	0.26	0
bin	0.28	0
bin	0.3	0
bin	0.32	0
bin	0.34	0
bin	0.36	0
bin	0.38	0
bin	0.4	0
bin	0.42	0
bin	0.44	0
bin	0.46	0
bin	0.48	0
bin	0.5	0
scalar TARPNetwork.node[58].wlan[0].mac.queue queueLength:max 1
attr interpolationmode sample-hold
attr source "count(packetPushed) - count(packetPopped) - count(packetRemoved) - count(packetDropped)"
attr title "queue length, max"
scalar TARPNetwork.node[58].wlan[0].mac.queue queueLength:timeavg 0
attr interpolationmode sample-hold
attr source "count(packetPushed) - count(packetPopped) - count(packetRemoved) - count(packetDropped)"
attr title "queue length, timeavg"
scalar TARPNetwork.node[58].wlan[0].mac.queue packetPushed:count 48
attr interpolationmode none
attr title "packet pushed, count"
scalar TARPNetwork.node[58].wlan[0].mac.queue packetPushed:sum(packetBytes) 48960
attr interpolationmode none
attr title "packet pushed, sum(packetBytes)"
scalar TARPNetwork.node[58].wlan[0].mac.queue packetDropQueueOverflow:count 0
attr interpolationmode none
attr source packetDropReasonIsQueueOverflow(packetDropped)
attr title "packet drops: queue overflow, count"
scalar TARPNetwork.node[58].wlan[0].mac.queue packetDropQueueOverflow:sum(packetBytes) 0
attr interpolationmode none
attr source packetDropReasonIsQueueOverflow(packetDropped)
attr title "packet drops: queue overflow, sum(packetBytes)"
scalar TARPNetwork.node[58].wlan[0].mac.queue packetRemoved:count 0
attr interpolationmode none
attr title "packets removed, count"
scalar TARPNetwork.node[58].wlan[0].mac.queue packetRemoved:sum(packetBytes) 0
attr interpolationmode none
attr title "packets removed, sum(packetBytes)"
scalar TARPNetwork.node[58].wlan[0].mac rcvdPkFromLl:count 915
attr interpolationmode none
attr source packetReceivedFromLower
attr title "packets received from lower layer, count"
scalar TARPNetwork.node[58].wlan[0].mac rcvdPkFromLl:sum(packetBytes) 947940
attr interpolationmode none
attr source packetReceivedFromLower
attr title "packets received from lower layer, sum(packetBytes)"
scalar TARPNetwork.node[58].wlan[0].mac sentDownPk:count 48
attr interpolationmode none
attr source packetSentToLower
attr title "packets sent to lower layer, count"
scalar TARPNetwork.node[58].wlan[0].mac sentDownPk:sum(packetBytes) 49728
attr interpolationmode none
attr source packetSentToLower
attr title "packets sent to lower layer, sum(packetBytes)"
scalar TARPNetwork.node[58].wlan[0].mac rcvdPkFromHl:count 48
attr interpolationmode none
attr source packetReceivedFromUpper
attr title "packets received from higher layer, count"
scalar TARPNetwork.node[58].wlan[0].mac rcvdPkFromHl:sum(packetBytes) 48960
attr interpolationmode none
attr source packetReceivedFromUpper
attr title "packets received from higher layer, sum(packetBytes)"
scalar TARPNetwork.node[58].wlan[0].mac passedUpPk:count 915
attr interpolationmode none
attr source packetSentToUpper
attr title "packets passed to higher layer, count"
scalar TARPNetwork.node[58].wlan[0].mac passedUpPk:sum(packetBytes) 933300
attr interpolationmode none
attr source packetSentToUpper
attr title "packets passed to higher layer, sum(packetBytes)"
scalar TARPNetwork.node[58].wlan[0].mac packetDropIncorrectlyReceived:count 0
attr interpolationmode none
attr source packetDropReasonIsIncorrectlyReceived(packetDropped)
attr title "packet drop: incorrectly received, count"
scalar TARPNetwork.node[58].wlan[0].mac packetDropIncorrectlyReceived:sum(packetBytes) 0
attr interpolationmode none
attr source packetDropReasonIsIncorrectlyReceived(packetDropped)
attr title "packet drop: incorrectly received, sum(packetBytes)"
scalar TARPNetwork.node[58].wlan[0].mac packetDropInterfaceDown:count 0
attr interpolationmode none
attr source packetDropReasonIsInterfaceDown(packetDropped)
attr title "packet drop: interface down, count"
scalar TARPNetwork.node[58].wlan[0].mac packetDropInterfaceDown:sum(packetBytes) 0
attr interpolationmode none
attr source packetDropReasonIsInterfaceDown(packetDropped)
attr title "packet drop: interface down, sum(packetBytes)"
scalar TARPNetwork.node[58].wlan[0].mac packetDropNotAddressedToUs:count 0
attr interpolationmode none
attr source packetDropReasonIsNotAddressedToUs(packetDropped)
attr title "packet drop: not addressed to us, count"
scalar TARPNetwork.node[58].wlan[0].mac packetDropNotAddressedToUs:sum(packetBytes) 0
attr interpolationmode none
attr source packetDropReasonIsNotAddressedToUs(packetDropped)
attr title "packet drop: not addressed to us, sum(packetBytes)"
scalar TARPNetwork.node[58].wlan[0].mac linkBroken:count 0
attr interpolationmode none
attr source linkBroken
attr title "link break, count"
statistic TARPNetwork.node[58].wlan[0].radio minSnir:histogram
field count 0
field mean nan
field stddev nan
field min nan
field max nan
field sum 0
field sqrsum 0
attr source minimumSnir(packetSentToUpper)
attr title "Min SNIR, histogram"
bin	-inf	0
bin	0	0
bin	1	0
statistic TARPNetwork.node[58].wlan[0].radio packetErrorRate:histogram
field count 915
field mean 0.67322404371585
field stddev 0.4692910863314
field min 0
field max 1
field sum 616
field sqrsum 616
attr source packetErrorRate(packetSentToUpper)
attr title "Packet error rate, histogram"
bin	-inf	0
bin	0	299
bin	1	616
bin	2	0
statistic TARPNetwork.node[58].wlan[0].radio bitErrorRate:histogram
field count 915
field mean 0.67322404371585
field stddev 0.4692910863314
field min 0
field max 1
field sum 616
field sqrsum 616
attr source bitErrorRate(packetSentToUpper)
attr title "Bit error rate, histogram"
bin	-inf	0
bin	0	299
bin	1	616
bin	2	0
statistic TARPNetwork.node[58].wlan[0].radio symbolErrorRate:histogram
field count 915
field mean 0.67322404371585
field stddev 0.4692910863314
field min 0
field max 1
field sum 616
field sqrsum 616
attr source symbolErrorRate(packetSentToUpper)
attr title "Symbol error rate, histogram"
bin	-inf	0
bin	0	299
bin	1	616
bin	2	0
scalar TARPNetwork.node[58].wlan[0].radio transmissionState:count 97
attr interpolationmode sample-hold
attr source transmissionStateChanged
attr title "Radio transmission state, count"
scalar TARPNetwork.node[58].wlan[0].radio receptionState:count 2429
attr interpolationmode sample-hold
attr source receptionStateChanged
attr title "Radio reception state, count"
scalar TARPNetwork.node[58].wlan[0].radio radioMode:count 3
attr interpolationmode sample-hold
attr source radioModeChanged
attr title "Radio mode, count"
scalar TARPNetwork.node[58].generic.np nbDataPacketsReceived 0
scalar TARPNetwork.node[58].generic.np nbDataPacketsSent 0
scalar TARPNetwork.node[58].generic.np nbDataPacketsForwarded 48
scalar TARPNetwork.node[58].generic.np meanNbHops 0
scalar TARPNetwork.node[58].generic.np nbSpdDrops 550
scalar TARPNetwork.node[58].udp packetReceived:count 0
attr interpolationmode none
attr source packetReceived
attr title "packets received, count"
scalar TARPNetwork.node[58].udp packetReceived:sum(packetBytes) 0
attr interpolationmode none
attr source packetReceived
attr title "packets received, sum(packetBytes)"
scalar TARPNetwork.node[58].udp packetSent:count 0
attr interpolationmode none
attr source packetSent
attr title "packets sent, count"
scalar TARPNetwork.node[58].udp packetSent:sum(packetBytes) 0
attr interpolationmode none
attr source packetSent
attr title "packets sent, sum(packetBytes)"
scalar TARPNetwork.node[58].udp passedUpPk:count 0
attr interpolationmode none
attr source packetSentToUpper
attr title "packets passed up, count"
scalar TARPNetwork.node[58].udp droppedPkWrongPort:count 0
attr interpolationmode none
attr source packetDropReasonIsNoPortFound(packetDropped)
attr title "packets dropped (wrong port), count"
scalar TARPNetwork.node[58].udp droppedPkBadChecksum:count 0
attr interpolationmode none
attr source packetDropReasonIsIncorrectlyReceived(packetDropped)
attr title "packets dropped (checksum error), count"
scalar TARPNetwork.node[59].lo[0].lo rcvdPkFromHl:count 0
attr interpolationmode none
attr source packetReceivedFromUpper
attr title "packets received from higher layer, count"
scalar TARPNetwork.node[59].lo[0].lo rcvdPkFromHl:sum(packetBytes) 0
attr interpolationmode none
attr source packetReceivedFromUpper
attr title "packets received from higher layer, sum(packetBytes)"
scalar TARPNetwork.node[59].lo[0].lo passedUpPk:count 0
attr interpolationmode none
attr source packetSentToUpper
attr title "packets passed to higher layer, count"
scalar TARPNetwork.node[59].lo[0].lo passedUpPk:sum(packetBytes) 0
attr interpolationmode none
attr source packetSentToUpper
attr title "packets passed to higher layer, sum(packetBytes)"
scalar TARPNetwork.node[59].wlan[0].mac.queue packetPopped:count 48
attr interpolationmode none
attr title "packet popped, count"
scalar TARPNetwork.node[59].wlan[0].mac.queue packetPopped:sum(packetBytes) 48960
attr interpolationmode none
attr title "packet popped, sum(packetBytes)"
statistic TARPNetwork.node[59].wlan[0].mac.queue queueingTime:histogram
field count 48
field mean 0
field stddev 0
field min 0
field max 0
field sum 0
field sqrsum 0
attr interpolationmode none
attr source queueingTime(packetPopped)
attr title "queueing times, histogram"
attr unit s
bin	-inf	0
bin	-0.5	0
bin	-0.48	0
bin	-0.46	0
bin	-0.44	0
bin	-0.42	0
bin	-0.4	0
bin	-0.38	0
bin	-0.36	0
bin	-0.34	0
bin	-0.32	0
bin	-0.3	0
bin	-0.28	0
bin	-0.26	0
bin	-0.24	0
bin	-0.22	0
bin	-0.2	0
bin	-0.18	0
bin	-0.16	0
bin	-0.14	0
bin	-0.12	0
bin	-0.1	0
bin	-0.08	0
bin	-0.06	0
bin	-0.04	0
bin	-0.02	0
bin	0	48
bin	0.02	0
bin	0.04	0
bin	0.06	0
bin	0.08	0
bin	0.1	0
bin	0.12	0
bin	0.14	0
bin	0.16	0
bin	0.18	0
bin	0.2	0
bin	0.22	0
bin	0.24	0
bin	0.26	0
bin	0.28	0
bin	0.3	0
bin	0.32	0
bin	0.34	0
bin	0.36	0
bin	0.38	0
bin	0.4	0
bin	0.42	0
bin	0.44	0
bin	0.46	0
bin	0.48	0
bin	0.5	0
scalar TARPNetwork.node[59].wlan[0].mac.queue queueLength:max 1
attr interpolationmode sample-hold
attr source "count(packetPushed) - count(packetPopped) - count(packetRemoved) - count(packetDropped)"
attr title "queue length, max"
scalar TARPNetwork.node[59].wlan[0].mac.queue queueLength:timeavg 0
attr interpolationmode sample-hold
attr source "count(packetPushed) - count(packetPopped) - count(packetRemoved) - count(packetDropped)"
attr title "queue length, timeavg"
scalar TARPNetwork.node[59].wlan[0].mac.queue packetPushed:count 48
attr interpolationmode none
attr title "packet pushed, count"
scalar TARPNetwork.node[59].wlan[0].mac.queue packetPushed:sum(packetBytes) 48960
attr interpolationmode none
attr title "packet pushed, sum(packetBytes)"
scalar TARPNetwork.node[59].wlan[0].mac.queue packetDropQueueOverflow:count 0
attr interpolationmode none
attr source packetDropReasonIsQueueOverflow(packetDropped)
attr title "packet drops: queue overflow, count"
scalar TARPNetwork.node[59].wlan[0].mac.queue packetDropQueueOverflow:sum(packetBytes) 0
attr interpolationmode none
attr source packetDropReasonIsQueueOverflow(packetDropped)
attr title "packet drops: queue overflow, sum(packetBytes)"
scalar TARPNetwork.node[59].wlan[0].mac.queue packetRemoved:count 0
attr interpolationmode none
attr title "packets removed, count"
scalar TARPNetwork.node[59].wlan[0].mac.queue packetRemoved:sum(packetBytes) 0
attr interpolationmode none
attr title "packets removed, sum(packetBytes)"
scalar TARPNetwork.node[59].wlan[0].mac rcvdPkFromLl:count 347
attr interpolationmode none
attr source packetReceivedFromLower
attr title "packets received from lower layer, count"
scalar TARPNetwork.node[59].wlan[0].mac rcvdPkFromLl:sum(packetBytes) 359492
attr interpolationmode none
attr source packetReceivedFromLower
attr title "packets received from lower layer, sum(packetBytes)"
scalar TARPNetwork.node[59].wlan[0].mac sentDownPk:count 48
attr interpolationmode none
attr source packetSentToLower
attr title "packets sent to lower layer, count"
scalar TARPNetwork.node[59].wlan[0].mac sentDownPk:sum(packetBytes) 49728
attr interpolationmode none
attr source packetSentToLower
attr title "packets sent to lower layer, sum(packetBytes)"
scalar TARPNetwork.node[59].wlan[0].mac rcvdPkFromHl:count 48
attr interpolationmode none
attr source packetReceivedFromUpper
attr title "packets received from higher layer, count"
scalar TARPNetwork.node[59].wlan[0].mac rcvdPkFromHl:sum(packetBytes) 48960
attr interpolationmode none
attr source packetReceivedFromUpper
attr title "packets received from higher layer, sum(packetBytes)"
scalar TARPNetwork.node[59].wlan[0].mac passedUpPk:count 347
attr interpolationmode none
attr source packetSentToUpper
attr title "packets passed to higher layer, count"
scalar TARPNetwork.node[59].wlan[0].mac passedUpPk:sum(packetBytes) 353940
attr interpolationmode none
attr source packetSentToUpper
attr title "packets passed to higher layer, sum(packetBytes)"
scalar TARPNetwork.node[59].wlan[0].mac packetDropIncorrectlyReceived:count 0
attr interpolationmode none
attr source packetDropReasonIsIncorrectlyReceived(packetDropped)
attr title "packet drop: incorrectly received, count"
scalar TARPNetwork.node[59].wlan[0].mac packetDropIncorrectlyReceived:sum(packetBytes) 0
attr interpolationmode none
attr source packetDropReasonIsIncorrectlyReceived(packetDropped)
attr title "packet drop: incorrectly received, sum(packetBytes)"
scalar TARPNetwork.node[59].wlan[0].mac packetDropInterfaceDown:count 0
attr interpolationmode none
attr source packetDropReasonIsInterfaceDown(packetDropped)
attr title "packet drop: interface down, count"
scalar TARPNetwork.node[59].wlan[0].mac packetDropInterfaceDown:sum(packetBytes) 0
attr interpolationmode none
attr source packetDropReasonIsInterfaceDown(packetDropped)
attr title "packet drop: interface down, sum(packetBytes)"
scalar TARPNetwork.node[59].wlan[0].mac packetDropNotAddressedToUs:count 0
attr interpolationmode none
attr source packetDropReasonIsNotAddressedToUs(packetDropped)
attr title "packet drop: not addressed to us, count"
scalar TARPNetwork.node[59].wlan[0].mac packetDropNotAddressedToUs:sum(packetBytes) 0
attr interpolationmode none
attr source packetDropReasonIsNotAddressedToUs(packetDropped)
attr title "packet drop: not addressed to us, sum(packetBytes)"
scalar TARPNetwork.node[59].wlan[0].mac linkBroken:count 0
attr interpolationmode none
attr source linkBroken
attr title "link break, count"
statistic TARPNetwork.node[59].wlan[0].radio minSnir:histogram
field count 0
field mean nan
field stddev nan
field min nan
field max nan
field sum 0
field sqrsum 0
attr source minimumSnir(packetSentToUpper)
attr title "Min SNIR, histogram"
bin	-inf	0
bin	0	0
bin	1	0
statistic TARPNetwork.node[59].wlan[0].radio packetErrorRate:histogram
field count 347
field mean 0.13832853025937
field stddev 0.34574302390176
field min 0
field max 1
field sum 48
field sqrsum 48
attr source packetErrorRate(packetSentToUpper)
attr title "Packet error rate, histogram"
bin	-inf	0
bin	0	299
bin	1	48
bin	2	0
statistic TARPNetwork.node[59].wlan[0].radio bitErrorRate:histogram
field count 347
field mean 0.13832853025937
field stddev 0.34574302390176
field min 0
field max 1
field sum 48
field sqrsum 48
attr source bitErrorRate(packetSentToUpper)
attr title "Bit error rate, histogram"
bin	-inf	0
bin	0	299
bin	1	48
bin	2	0
statistic TARPNetwork.node[59].wlan[0].radio symbolErrorRate:histogram
field count 347
field mean 0.13832853025937
field stddev 0.34574302390176
field min 0
field max 1
field sum 48
field sqrsum 48
attr source symbolErrorRate(packetSentToUpper)
attr title "Symbol error rate, histogram"
bin	-inf	0
bin	0	299
bin	1	48
bin	2	0
scalar TARPNetwork.node[59].wlan[0].radio transmissionState:count 97
attr interpolationmode sample-hold
attr source transmissionStateChanged
attr title "Radio transmission state, count"
scalar TARPNetwork.node[59].wlan[0].radio receptionState:count 734
attr interpolationmode sample-hold
attr source receptionStateChanged
attr title "Radio reception state, count"
scalar TARPNetwork.node[59].wlan[0].radio radioMode:count 3
attr interpolationmode sample-hold
attr source radioModeChanged
attr title "Radio mode, count"
scalar TARPNetwork.node[59].generic.np nbDataPacketsReceived 0
scalar TARPNetwork.node[59].generic.np nbDataPacketsSent 0
scalar TARPNetwork.node[59].generic.np nbDataPacketsForwarded 48
scalar TARPNetwork.node[59].generic.np meanNbHops 0
scalar TARPNetwork.node[59].generic.np nbSpdDrops 260
scalar TARPNetwork.node[59].udp packetReceived:count 0
attr interpolationmode none
attr source packetReceived
attr title "packets received, count"
scalar TARPNetwork.node[59].udp packetReceived:sum(packetBytes) 0
attr interpolationmode none
attr source packetReceived
attr title "packets received, sum(packetBytes)"
scalar TARPNetwork.node[59].udp packetSent:count 0
attr interpolationmode none
attr source packetSent
attr title "packets sent, count"
scalar TARPNetwork.node[59].udp packetSent:sum(packetBytes) 0
attr interpolationmode none
attr source packetSent
attr title "packets sent, sum(packetBytes)"
scalar TARPNetwork.node[59].udp passedUpPk:count 0
attr interpolationmode none
attr source packetSentToUpper
attr title "packets passed up, count"
scalar TARPNetwork.node[59].udp droppedPkWrongPort:count 0
attr interpolationmode none
attr source packetDropReasonIsNoPortFound(packetDropped)
attr title "packets dropped (wrong port), count"
scalar TARPNetwork.node[59].udp droppedPkBadChecksum:count 0
attr interpolationmode none
attr source packetDropReasonIsIncorrectlyReceived(packetDropped)
attr title "packets dropped (checksum error), count"

