file 655282 1631290420                                          
version 2
run Static-0-20210910-21:43:28-14988
attr configname Static
attr datetime 20210910-21:43:28
attr experiment Static
attr inifile omnetpp.ini
attr iterationvars ""
attr iterationvarsf ""
attr measurement ""
attr network TARPNetwork
attr processid 14988
attr repetition 0
attr replication #0
attr resultdir results
attr runnumber 0
attr seedset 0
param **.node[*].mobility.typename "\"StationaryMobility\""
param **.mobility.constraintAreaMinZ 0m
param **.mobility.constraintAreaMaxZ 0m
param **.mobility.constraintAreaMinX 100m
param **.mobility.constraintAreaMinY 100m
param **.mobility.constraintAreaMaxX 500m
param **.mobility.constraintAreaMaxY 500m
param **.numNodes 40
param *.node*.typename "\"Node\""
param *.nodeA.numApps 1
param *.nodeA.app[0].typename "\"PingApp\""
param *.nodeA.app[0].destAddr "\"nodeB\""
param *.nodeA.app[0].startTime 1s
param **.wlan[*].typename "\"AckingWirelessInterface\""
param **.bitrate 2Mbps
param **.wlan[*].radio.transmitter.communicationRange 100m
param **.wlan[*].radio.transmitter.interferenceRange 0m
param **.wlan[*].radio.transmitter.detectionRange 0m
param **.wlan[*].radio.receiver.ignoreInterference true
param *.nodeA.wlan[0].radio.displayCommunicationRange true
param *.nodeB.wlan[0].radio.displayCommunicationRange true
param *.visualizer.dataLinkVisualizer.displayLinks true
param *.visualizer.networkRouteVisualizer.displayRoutes true
param *.visualizer.*LinkVisualizer.lineShift 0
param *.visualizer.networkRouteVisualizer.lineShift 0
param *.visualizer.networkRouteVisualizer.packetFilter "\"TARP*\""
param **.hasIpv4 false
param **.hasIpv6 false
param **.hasGn true
param **.forwarding true
param **.generic.typename "\"SimpleNetworkLayer\""
param **.generic.np.typename "\"TarpF\""
param **.app[*].networkProtocol "\"tarpf\""

vector 0 TARPNetwork.node[0].wlan[0].radio radioMode:vector ETV
attr interpolationmode sample-hold
attr source radioModeChanged
attr title "Radio mode, vector"
vector 1 TARPNetwork.node[1].wlan[0].radio radioMode:vector ETV
attr interpolationmode sample-hold
attr source radioModeChanged
attr title "Radio mode, vector"
vector 2 TARPNetwork.node[2].wlan[0].radio radioMode:vector ETV
attr interpolationmode sample-hold
attr source radioModeChanged
attr title "Radio mode, vector"
vector 3 TARPNetwork.node[3].wlan[0].radio radioMode:vector ETV
attr interpolationmode sample-hold
attr source radioModeChanged
attr title "Radio mode, vector"
vector 4 TARPNetwork.node[4].wlan[0].radio radioMode:vector ETV
attr interpolationmode sample-hold
attr source radioModeChanged
attr title "Radio mode, vector"
vector 5 TARPNetwork.node[5].wlan[0].radio radioMode:vector ETV
attr interpolationmode sample-hold
attr source radioModeChanged
attr title "Radio mode, vector"
vector 6 TARPNetwork.node[6].wlan[0].radio radioMode:vector ETV
attr interpolationmode sample-hold
attr source radioModeChanged
attr title "Radio mode, vector"
vector 7 TARPNetwork.node[7].wlan[0].radio radioMode:vector ETV
attr interpolationmode sample-hold
attr source radioModeChanged
attr title "Radio mode, vector"
vector 8 TARPNetwork.node[8].wlan[0].radio radioMode:vector ETV
attr interpolationmode sample-hold
attr source radioModeChanged
attr title "Radio mode, vector"
vector 9 TARPNetwork.node[9].wlan[0].radio radioMode:vector ETV
attr interpolationmode sample-hold
attr source radioModeChanged
attr title "Radio mode, vector"
vector 10 TARPNetwork.node[10].wlan[0].radio radioMode:vector ETV
attr interpolationmode sample-hold
attr source radioModeChanged
attr title "Radio mode, vector"
vector 11 TARPNetwork.node[11].wlan[0].radio radioMode:vector ETV
attr interpolationmode sample-hold
attr source radioModeChanged
attr title "Radio mode, vector"
vector 12 TARPNetwork.node[12].wlan[0].radio radioMode:vector ETV
attr interpolationmode sample-hold
attr source radioModeChanged
attr title "Radio mode, vector"
vector 13 TARPNetwork.node[13].wlan[0].radio radioMode:vector ETV
attr interpolationmode sample-hold
attr source radioModeChanged
attr title "Radio mode, vector"
vector 14 TARPNetwork.node[14].wlan[0].radio radioMode:vector ETV
attr interpolationmode sample-hold
attr source radioModeChanged
attr title "Radio mode, vector"
vector 15 TARPNetwork.node[15].wlan[0].radio radioMode:vector ETV
attr interpolationmode sample-hold
attr source radioModeChanged
attr title "Radio mode, vector"
vector 16 TARPNetwork.node[16].wlan[0].radio radioMode:vector ETV
attr interpolationmode sample-hold
attr source radioModeChanged
attr title "Radio mode, vector"
vector 17 TARPNetwork.node[17].wlan[0].radio radioMode:vector ETV
attr interpolationmode sample-hold
attr source radioModeChanged
attr title "Radio mode, vector"
vector 18 TARPNetwork.node[18].wlan[0].radio radioMode:vector ETV
attr interpolationmode sample-hold
attr source radioModeChanged
attr title "Radio mode, vector"
vector 19 TARPNetwork.node[19].wlan[0].radio radioMode:vector ETV
attr interpolationmode sample-hold
attr source radioModeChanged
attr title "Radio mode, vector"
vector 20 TARPNetwork.node[20].wlan[0].radio radioMode:vector ETV
attr interpolationmode sample-hold
attr source radioModeChanged
attr title "Radio mode, vector"
vector 21 TARPNetwork.node[21].wlan[0].radio radioMode:vector ETV
attr interpolationmode sample-hold
attr source radioModeChanged
attr title "Radio mode, vector"
vector 22 TARPNetwork.node[22].wlan[0].radio radioMode:vector ETV
attr interpolationmode sample-hold
attr source radioModeChanged
attr title "Radio mode, vector"
vector 23 TARPNetwork.node[23].wlan[0].radio radioMode:vector ETV
attr interpolationmode sample-hold
attr source radioModeChanged
attr title "Radio mode, vector"
vector 24 TARPNetwork.node[24].wlan[0].radio radioMode:vector ETV
attr interpolationmode sample-hold
attr source radioModeChanged
attr title "Radio mode, vector"
vector 25 TARPNetwork.node[25].wlan[0].radio radioMode:vector ETV
attr interpolationmode sample-hold
attr source radioModeChanged
attr title "Radio mode, vector"
vector 26 TARPNetwork.node[26].wlan[0].radio radioMode:vector ETV
attr interpolationmode sample-hold
attr source radioModeChanged
attr title "Radio mode, vector"
vector 27 TARPNetwork.node[27].wlan[0].radio radioMode:vector ETV
attr interpolationmode sample-hold
attr source radioModeChanged
attr title "Radio mode, vector"
vector 28 TARPNetwork.node[28].wlan[0].radio radioMode:vector ETV
attr interpolationmode sample-hold
attr source radioModeChanged
attr title "Radio mode, vector"
vector 29 TARPNetwork.node[29].wlan[0].radio radioMode:vector ETV
attr interpolationmode sample-hold
attr source radioModeChanged
attr title "Radio mode, vector"
vector 30 TARPNetwork.node[30].wlan[0].radio radioMode:vector ETV
attr interpolationmode sample-hold
attr source radioModeChanged
attr title "Radio mode, vector"
vector 31 TARPNetwork.node[31].wlan[0].radio radioMode:vector ETV
attr interpolationmode sample-hold
attr source radioModeChanged
attr title "Radio mode, vector"
vector 32 TARPNetwork.node[32].wlan[0].radio radioMode:vector ETV
attr interpolationmode sample-hold
attr source radioModeChanged
attr title "Radio mode, vector"
vector 33 TARPNetwork.node[33].wlan[0].radio radioMode:vector ETV
attr interpolationmode sample-hold
attr source radioModeChanged
attr title "Radio mode, vector"
vector 34 TARPNetwork.node[34].wlan[0].radio radioMode:vector ETV
attr interpolationmode sample-hold
attr source radioModeChanged
attr title "Radio mode, vector"
vector 35 TARPNetwork.node[35].wlan[0].radio radioMode:vector ETV
attr interpolationmode sample-hold
attr source radioModeChanged
attr title "Radio mode, vector"
vector 36 TARPNetwork.node[36].wlan[0].radio radioMode:vector ETV
attr interpolationmode sample-hold
attr source radioModeChanged
attr title "Radio mode, vector"
vector 37 TARPNetwork.node[37].wlan[0].radio radioMode:vector ETV
attr interpolationmode sample-hold
attr source radioModeChanged
attr title "Radio mode, vector"
vector 38 TARPNetwork.node[38].wlan[0].radio radioMode:vector ETV
attr interpolationmode sample-hold
attr source radioModeChanged
attr title "Radio mode, vector"
vector 39 TARPNetwork.node[39].wlan[0].radio radioMode:vector ETV
attr interpolationmode sample-hold
attr source radioModeChanged
attr title "Radio mode, vector"
vector 40 TARPNetwork.nodeA.wlan[0].radio radioMode:vector ETV
attr interpolationmode sample-hold
attr source radioModeChanged
attr title "Radio mode, vector"
vector 41 TARPNetwork.nodeB.wlan[0].radio radioMode:vector ETV
attr interpolationmode sample-hold
attr source radioModeChanged
attr title "Radio mode, vector"
vector 42 TARPNetwork.node[0].wlan[0].radio receptionState:vector ETV
attr interpolationmode sample-hold
attr source receptionStateChanged
attr title "Radio reception state, vector"
vector 43 TARPNetwork.node[0].wlan[0].radio transmissionState:vector ETV
attr interpolationmode sample-hold
attr source transmissionStateChanged
attr title "Radio transmission state, vector"
vector 44 TARPNetwork.node[1].wlan[0].radio receptionState:vector ETV
attr interpolationmode sample-hold
attr source receptionStateChanged
attr title "Radio reception state, vector"
vector 45 TARPNetwork.node[1].wlan[0].radio transmissionState:vector ETV
attr interpolationmode sample-hold
attr source transmissionStateChanged
attr title "Radio transmission state, vector"
vector 46 TARPNetwork.node[2].wlan[0].radio receptionState:vector ETV
attr interpolationmode sample-hold
attr source receptionStateChanged
attr title "Radio reception state, vector"
vector 47 TARPNetwork.node[2].wlan[0].radio transmissionState:vector ETV
attr interpolationmode sample-hold
attr source transmissionStateChanged
attr title "Radio transmission state, vector"
vector 48 TARPNetwork.node[3].wlan[0].radio receptionState:vector ETV
attr interpolationmode sample-hold
attr source receptionStateChanged
attr title "Radio reception state, vector"
vector 49 TARPNetwork.node[3].wlan[0].radio transmissionState:vector ETV
attr interpolationmode sample-hold
attr source transmissionStateChanged
attr title "Radio transmission state, vector"
vector 50 TARPNetwork.node[4].wlan[0].radio receptionState:vector ETV
attr interpolationmode sample-hold
attr source receptionStateChanged
attr title "Radio reception state, vector"
vector 51 TARPNetwork.node[4].wlan[0].radio transmissionState:vector ETV
attr interpolationmode sample-hold
attr source transmissionStateChanged
attr title "Radio transmission state, vector"
vector 52 TARPNetwork.node[5].wlan[0].radio receptionState:vector ETV
attr interpolationmode sample-hold
attr source receptionStateChanged
attr title "Radio reception state, vector"
vector 53 TARPNetwork.node[5].wlan[0].radio transmissionState:vector ETV
attr interpolationmode sample-hold
attr source transmissionStateChanged
attr title "Radio transmission state, vector"
vector 54 TARPNetwork.node[6].wlan[0].radio receptionState:vector ETV
attr interpolationmode sample-hold
attr source receptionStateChanged
attr title "Radio reception state, vector"
vector 55 TARPNetwork.node[6].wlan[0].radio transmissionState:vector ETV
attr interpolationmode sample-hold
attr source transmissionStateChanged
attr title "Radio transmission state, vector"
vector 56 TARPNetwork.node[7].wlan[0].radio receptionState:vector ETV
attr interpolationmode sample-hold
attr source receptionStateChanged
attr title "Radio reception state, vector"
vector 57 TARPNetwork.node[7].wlan[0].radio transmissionState:vector ETV
attr interpolationmode sample-hold
attr source transmissionStateChanged
attr title "Radio transmission state, vector"
vector 58 TARPNetwork.node[8].wlan[0].radio receptionState:vector ETV
attr interpolationmode sample-hold
attr source receptionStateChanged
attr title "Radio reception state, vector"
vector 59 TARPNetwork.node[8].wlan[0].radio transmissionState:vector ETV
attr interpolationmode sample-hold
attr source transmissionStateChanged
attr title "Radio transmission state, vector"
vector 60 TARPNetwork.node[9].wlan[0].radio receptionState:vector ETV
attr interpolationmode sample-hold
attr source receptionStateChanged
attr title "Radio reception state, vector"
vector 61 TARPNetwork.node[9].wlan[0].radio transmissionState:vector ETV
attr interpolationmode sample-hold
attr source transmissionStateChanged
attr title "Radio transmission state, vector"
vector 62 TARPNetwork.node[10].wlan[0].radio receptionState:vector ETV
attr interpolationmode sample-hold
attr source receptionStateChanged
attr title "Radio reception state, vector"
vector 63 TARPNetwork.node[10].wlan[0].radio transmissionState:vector ETV
attr interpolationmode sample-hold
attr source transmissionStateChanged
attr title "Radio transmission state, vector"
vector 64 TARPNetwork.node[11].wlan[0].radio receptionState:vector ETV
attr interpolationmode sample-hold
attr source receptionStateChanged
attr title "Radio reception state, vector"
vector 65 TARPNetwork.node[11].wlan[0].radio transmissionState:vector ETV
attr interpolationmode sample-hold
attr source transmissionStateChanged
attr title "Radio transmission state, vector"
vector 66 TARPNetwork.node[12].wlan[0].radio receptionState:vector ETV
attr interpolationmode sample-hold
attr source receptionStateChanged
attr title "Radio reception state, vector"
vector 67 TARPNetwork.node[12].wlan[0].radio transmissionState:vector ETV
attr interpolationmode sample-hold
attr source transmissionStateChanged
attr title "Radio transmission state, vector"
vector 68 TARPNetwork.node[13].wlan[0].radio receptionState:vector ETV
attr interpolationmode sample-hold
attr source receptionStateChanged
attr title "Radio reception state, vector"
vector 69 TARPNetwork.node[13].wlan[0].radio transmissionState:vector ETV
attr interpolationmode sample-hold
attr source transmissionStateChanged
attr title "Radio transmission state, vector"
vector 70 TARPNetwork.node[14].wlan[0].radio receptionState:vector ETV
attr interpolationmode sample-hold
attr source receptionStateChanged
attr title "Radio reception state, vector"
vector 71 TARPNetwork.node[14].wlan[0].radio transmissionState:vector ETV
attr interpolationmode sample-hold
attr source transmissionStateChanged
attr title "Radio transmission state, vector"
vector 72 TARPNetwork.node[15].wlan[0].radio receptionState:vector ETV
attr interpolationmode sample-hold
attr source receptionStateChanged
attr title "Radio reception state, vector"
vector 73 TARPNetwork.node[15].wlan[0].radio transmissionState:vector ETV
attr interpolationmode sample-hold
attr source transmissionStateChanged
attr title "Radio transmission state, vector"
vector 74 TARPNetwork.node[16].wlan[0].radio receptionState:vector ETV
attr interpolationmode sample-hold
attr source receptionStateChanged
attr title "Radio reception state, vector"
vector 75 TARPNetwork.node[16].wlan[0].radio transmissionState:vector ETV
attr interpolationmode sample-hold
attr source transmissionStateChanged
attr title "Radio transmission state, vector"
vector 76 TARPNetwork.node[17].wlan[0].radio receptionState:vector ETV
attr interpolationmode sample-hold
attr source receptionStateChanged
attr title "Radio reception state, vector"
vector 77 TARPNetwork.node[17].wlan[0].radio transmissionState:vector ETV
attr interpolationmode sample-hold
attr source transmissionStateChanged
attr title "Radio transmission state, vector"
vector 78 TARPNetwork.node[18].wlan[0].radio receptionState:vector ETV
attr interpolationmode sample-hold
attr source receptionStateChanged
attr title "Radio reception state, vector"
vector 79 TARPNetwork.node[18].wlan[0].radio transmissionState:vector ETV
attr interpolationmode sample-hold
attr source transmissionStateChanged
attr title "Radio transmission state, vector"
vector 80 TARPNetwork.node[19].wlan[0].radio receptionState:vector ETV
attr interpolationmode sample-hold
attr source receptionStateChanged
attr title "Radio reception state, vector"
vector 81 TARPNetwork.node[19].wlan[0].radio transmissionState:vector ETV
attr interpolationmode sample-hold
attr source transmissionStateChanged
attr title "Radio transmission state, vector"
vector 82 TARPNetwork.node[20].wlan[0].radio receptionState:vector ETV
attr interpolationmode sample-hold
attr source receptionStateChanged
attr title "Radio reception state, vector"
vector 83 TARPNetwork.node[20].wlan[0].radio transmissionState:vector ETV
attr interpolationmode sample-hold
attr source transmissionStateChanged
attr title "Radio transmission state, vector"
vector 84 TARPNetwork.node[21].wlan[0].radio receptionState:vector ETV
attr interpolationmode sample-hold
attr source receptionStateChanged
attr title "Radio reception state, vector"
vector 85 TARPNetwork.node[21].wlan[0].radio transmissionState:vector ETV
attr interpolationmode sample-hold
attr source transmissionStateChanged
attr title "Radio transmission state, vector"
vector 86 TARPNetwork.node[22].wlan[0].radio receptionState:vector ETV
attr interpolationmode sample-hold
attr source receptionStateChanged
attr title "Radio reception state, vector"
vector 87 TARPNetwork.node[22].wlan[0].radio transmissionState:vector ETV
attr interpolationmode sample-hold
attr source transmissionStateChanged
attr title "Radio transmission state, vector"
vector 88 TARPNetwork.node[23].wlan[0].radio receptionState:vector ETV
attr interpolationmode sample-hold
attr source receptionStateChanged
attr title "Radio reception state, vector"
vector 89 TARPNetwork.node[23].wlan[0].radio transmissionState:vector ETV
attr interpolationmode sample-hold
attr source transmissionStateChanged
attr title "Radio transmission state, vector"
vector 90 TARPNetwork.node[24].wlan[0].radio receptionState:vector ETV
attr interpolationmode sample-hold
attr source receptionStateChanged
attr title "Radio reception state, vector"
vector 91 TARPNetwork.node[24].wlan[0].radio transmissionState:vector ETV
attr interpolationmode sample-hold
attr source transmissionStateChanged
attr title "Radio transmission state, vector"
vector 92 TARPNetwork.node[25].wlan[0].radio receptionState:vector ETV
attr interpolationmode sample-hold
attr source receptionStateChanged
attr title "Radio reception state, vector"
vector 93 TARPNetwork.node[25].wlan[0].radio transmissionState:vector ETV
attr interpolationmode sample-hold
attr source transmissionStateChanged
attr title "Radio transmission state, vector"
vector 94 TARPNetwork.node[26].wlan[0].radio receptionState:vector ETV
attr interpolationmode sample-hold
attr source receptionStateChanged
attr title "Radio reception state, vector"
vector 95 TARPNetwork.node[26].wlan[0].radio transmissionState:vector ETV
attr interpolationmode sample-hold
attr source transmissionStateChanged
attr title "Radio transmission state, vector"
vector 96 TARPNetwork.node[27].wlan[0].radio receptionState:vector ETV
attr interpolationmode sample-hold
attr source receptionStateChanged
attr title "Radio reception state, vector"
vector 97 TARPNetwork.node[27].wlan[0].radio transmissionState:vector ETV
attr interpolationmode sample-hold
attr source transmissionStateChanged
attr title "Radio transmission state, vector"
vector 98 TARPNetwork.node[28].wlan[0].radio receptionState:vector ETV
attr interpolationmode sample-hold
attr source receptionStateChanged
attr title "Radio reception state, vector"
vector 99 TARPNetwork.node[28].wlan[0].radio transmissionState:vector ETV
attr interpolationmode sample-hold
attr source transmissionStateChanged
attr title "Radio transmission state, vector"
vector 100 TARPNetwork.node[29].wlan[0].radio receptionState:vector ETV
attr interpolationmode sample-hold
attr source receptionStateChanged
attr title "Radio reception state, vector"
vector 101 TARPNetwork.node[29].wlan[0].radio transmissionState:vector ETV
attr interpolationmode sample-hold
attr source transmissionStateChanged
attr title "Radio transmission state, vector"
vector 102 TARPNetwork.node[30].wlan[0].radio receptionState:vector ETV
attr interpolationmode sample-hold
attr source receptionStateChanged
attr title "Radio reception state, vector"
vector 103 TARPNetwork.node[30].wlan[0].radio transmissionState:vector ETV
attr interpolationmode sample-hold
attr source transmissionStateChanged
attr title "Radio transmission state, vector"
vector 104 TARPNetwork.node[31].wlan[0].radio receptionState:vector ETV
attr interpolationmode sample-hold
attr source receptionStateChanged
attr title "Radio reception state, vector"
vector 105 TARPNetwork.node[31].wlan[0].radio transmissionState:vector ETV
attr interpolationmode sample-hold
attr source transmissionStateChanged
attr title "Radio transmission state, vector"
vector 106 TARPNetwork.node[32].wlan[0].radio receptionState:vector ETV
attr interpolationmode sample-hold
attr source receptionStateChanged
attr title "Radio reception state, vector"
vector 107 TARPNetwork.node[32].wlan[0].radio transmissionState:vector ETV
attr interpolationmode sample-hold
attr source transmissionStateChanged
attr title "Radio transmission state, vector"
vector 108 TARPNetwork.node[33].wlan[0].radio receptionState:vector ETV
attr interpolationmode sample-hold
attr source receptionStateChanged
attr title "Radio reception state, vector"
vector 109 TARPNetwork.node[33].wlan[0].radio transmissionState:vector ETV
attr interpolationmode sample-hold
attr source transmissionStateChanged
attr title "Radio transmission state, vector"
vector 110 TARPNetwork.node[34].wlan[0].radio receptionState:vector ETV
attr interpolationmode sample-hold
attr source receptionStateChanged
attr title "Radio reception state, vector"
vector 111 TARPNetwork.node[34].wlan[0].radio transmissionState:vector ETV
attr interpolationmode sample-hold
attr source transmissionStateChanged
attr title "Radio transmission state, vector"
vector 112 TARPNetwork.node[35].wlan[0].radio receptionState:vector ETV
attr interpolationmode sample-hold
attr source receptionStateChanged
attr title "Radio reception state, vector"
vector 113 TARPNetwork.node[35].wlan[0].radio transmissionState:vector ETV
attr interpolationmode sample-hold
attr source transmissionStateChanged
attr title "Radio transmission state, vector"
vector 114 TARPNetwork.node[36].wlan[0].radio receptionState:vector ETV
attr interpolationmode sample-hold
attr source receptionStateChanged
attr title "Radio reception state, vector"
vector 115 TARPNetwork.node[36].wlan[0].radio transmissionState:vector ETV
attr interpolationmode sample-hold
attr source transmissionStateChanged
attr title "Radio transmission state, vector"
vector 116 TARPNetwork.node[37].wlan[0].radio receptionState:vector ETV
attr interpolationmode sample-hold
attr source receptionStateChanged
attr title "Radio reception state, vector"
vector 117 TARPNetwork.node[37].wlan[0].radio transmissionState:vector ETV
attr interpolationmode sample-hold
attr source transmissionStateChanged
attr title "Radio transmission state, vector"
vector 118 TARPNetwork.node[38].wlan[0].radio receptionState:vector ETV
attr interpolationmode sample-hold
attr source receptionStateChanged
attr title "Radio reception state, vector"
vector 119 TARPNetwork.node[38].wlan[0].radio transmissionState:vector ETV
attr interpolationmode sample-hold
attr source transmissionStateChanged
attr title "Radio transmission state, vector"
vector 120 TARPNetwork.node[39].wlan[0].radio receptionState:vector ETV
attr interpolationmode sample-hold
attr source receptionStateChanged
attr title "Radio reception state, vector"
vector 121 TARPNetwork.node[39].wlan[0].radio transmissionState:vector ETV
attr interpolationmode sample-hold
attr source transmissionStateChanged
attr title "Radio transmission state, vector"
vector 122 TARPNetwork.nodeA.wlan[0].radio receptionState:vector ETV
attr interpolationmode sample-hold
attr source receptionStateChanged
attr title "Radio reception state, vector"
vector 123 TARPNetwork.nodeA.wlan[0].radio transmissionState:vector ETV
attr interpolationmode sample-hold
attr source transmissionStateChanged
attr title "Radio transmission state, vector"
vector 124 TARPNetwork.nodeB.wlan[0].radio receptionState:vector ETV
attr interpolationmode sample-hold
attr source receptionStateChanged
attr title "Radio reception state, vector"
vector 125 TARPNetwork.nodeB.wlan[0].radio transmissionState:vector ETV
attr interpolationmode sample-hold
attr source transmissionStateChanged
attr title "Radio transmission state, vector"
vector 126 TARPNetwork.nodeA.app[0] pingTxSeq:vector ETV
attr interpolationmode none
attr title "ping tx seq, vector"
vector 127 TARPNetwork.nodeA.wlan[0].mac rcvdPkFromHl:vector(packetBytes) ETV
attr interpolationmode none
attr source packetReceivedFromUpper
attr title "packets received from higher layer, vector(packetBytes)"
vector 128 TARPNetwork.nodeA.wlan[0].mac.queue packetPushed:vector(packetBytes) ETV
attr interpolationmode none
attr title "packet pushed, vector(packetBytes)"
vector 129 TARPNetwork.nodeA.wlan[0].mac.queue queueLength:vector ETV
attr interpolationmode sample-hold
attr source "count(packetPushed) - count(packetPopped) - count(packetRemoved) - count(packetDropped)"
attr title "queue length, vector"
vector 130 TARPNetwork.nodeA.wlan[0].mac.queue packetPopped:vector(packetBytes) ETV
attr interpolationmode none
attr title "packet popped, vector(packetBytes)"
vector 131 TARPNetwork.nodeA.wlan[0].mac.queue queueingTime:vector ETV
attr interpolationmode none
attr source queueingTime(packetPopped)
attr title "queueing times, vector"
attr unit s
vector 132 TARPNetwork.nodeA.wlan[0].mac sentDownPk:vector(packetBytes) ETV
attr interpolationmode none
attr source packetSentToLower
attr title "packets sent to lower layer, vector(packetBytes)"
vector 133 TARPNetwork.node[0].wlan[0].mac rcvdPkFromLl:vector(packetBytes) ETV
attr interpolationmode none
attr source packetReceivedFromLower
attr title "packets received from lower layer, vector(packetBytes)"
vector 134 TARPNetwork.node[0].wlan[0].mac passedUpPk:vector(packetBytes) ETV
attr interpolationmode none
attr source packetSentToUpper
attr title "packets passed to higher layer, vector(packetBytes)"
vector 135 TARPNetwork.node[0].wlan[0].mac rcvdPkFromHl:vector(packetBytes) ETV
attr interpolationmode none
attr source packetReceivedFromUpper
attr title "packets received from higher layer, vector(packetBytes)"
vector 136 TARPNetwork.node[0].wlan[0].mac.queue packetPushed:vector(packetBytes) ETV
attr interpolationmode none
attr title "packet pushed, vector(packetBytes)"
vector 137 TARPNetwork.node[0].wlan[0].mac.queue queueLength:vector ETV
attr interpolationmode sample-hold
attr source "count(packetPushed) - count(packetPopped) - count(packetRemoved) - count(packetDropped)"
attr title "queue length, vector"
vector 138 TARPNetwork.node[0].wlan[0].mac.queue packetPopped:vector(packetBytes) ETV
attr interpolationmode none
attr title "packet popped, vector(packetBytes)"
vector 139 TARPNetwork.node[0].wlan[0].mac.queue queueingTime:vector ETV
attr interpolationmode none
attr source queueingTime(packetPopped)
attr title "queueing times, vector"
attr unit s
vector 140 TARPNetwork.node[0].wlan[0].mac sentDownPk:vector(packetBytes) ETV
attr interpolationmode none
attr source packetSentToLower
attr title "packets sent to lower layer, vector(packetBytes)"
vector 141 TARPNetwork.node[23].wlan[0].mac rcvdPkFromLl:vector(packetBytes) ETV
attr interpolationmode none
attr source packetReceivedFromLower
attr title "packets received from lower layer, vector(packetBytes)"
vector 142 TARPNetwork.node[23].wlan[0].mac passedUpPk:vector(packetBytes) ETV
attr interpolationmode none
attr source packetSentToUpper
attr title "packets passed to higher layer, vector(packetBytes)"
vector 143 TARPNetwork.node[23].wlan[0].mac rcvdPkFromHl:vector(packetBytes) ETV
attr interpolationmode none
attr source packetReceivedFromUpper
attr title "packets received from higher layer, vector(packetBytes)"
vector 144 TARPNetwork.node[23].wlan[0].mac.queue packetPushed:vector(packetBytes) ETV
attr interpolationmode none
attr title "packet pushed, vector(packetBytes)"
vector 145 TARPNetwork.node[23].wlan[0].mac.queue queueLength:vector ETV
attr interpolationmode sample-hold
attr source "count(packetPushed) - count(packetPopped) - count(packetRemoved) - count(packetDropped)"
attr title "queue length, vector"
vector 146 TARPNetwork.node[23].wlan[0].mac.queue packetPopped:vector(packetBytes) ETV
attr interpolationmode none
attr title "packet popped, vector(packetBytes)"
vector 147 TARPNetwork.node[23].wlan[0].mac.queue queueingTime:vector ETV
attr interpolationmode none
attr source queueingTime(packetPopped)
attr title "queueing times, vector"
attr unit s
vector 148 TARPNetwork.node[23].wlan[0].mac sentDownPk:vector(packetBytes) ETV
attr interpolationmode none
attr source packetSentToLower
attr title "packets sent to lower layer, vector(packetBytes)"
vector 149 TARPNetwork.node[16].wlan[0].mac rcvdPkFromLl:vector(packetBytes) ETV
attr interpolationmode none
attr source packetReceivedFromLower
attr title "packets received from lower layer, vector(packetBytes)"
vector 150 TARPNetwork.node[16].wlan[0].mac passedUpPk:vector(packetBytes) ETV
attr interpolationmode none
attr source packetSentToUpper
attr title "packets passed to higher layer, vector(packetBytes)"
vector 151 TARPNetwork.node[16].wlan[0].mac rcvdPkFromHl:vector(packetBytes) ETV
attr interpolationmode none
attr source packetReceivedFromUpper
attr title "packets received from higher layer, vector(packetBytes)"
vector 152 TARPNetwork.node[16].wlan[0].mac.queue packetPushed:vector(packetBytes) ETV
attr interpolationmode none
attr title "packet pushed, vector(packetBytes)"
vector 153 TARPNetwork.node[16].wlan[0].mac.queue queueLength:vector ETV
attr interpolationmode sample-hold
attr source "count(packetPushed) - count(packetPopped) - count(packetRemoved) - count(packetDropped)"
attr title "queue length, vector"
vector 154 TARPNetwork.node[16].wlan[0].mac.queue packetPopped:vector(packetBytes) ETV
attr interpolationmode none
attr title "packet popped, vector(packetBytes)"
vector 155 TARPNetwork.node[16].wlan[0].mac.queue queueingTime:vector ETV
attr interpolationmode none
attr source queueingTime(packetPopped)
attr title "queueing times, vector"
attr unit s
vector 156 TARPNetwork.node[16].wlan[0].mac sentDownPk:vector(packetBytes) ETV
attr interpolationmode none
attr source packetSentToLower
attr title "packets sent to lower layer, vector(packetBytes)"
vector 157 TARPNetwork.node[17].wlan[0].mac rcvdPkFromLl:vector(packetBytes) ETV
attr interpolationmode none
attr source packetReceivedFromLower
attr title "packets received from lower layer, vector(packetBytes)"
vector 158 TARPNetwork.node[17].wlan[0].mac passedUpPk:vector(packetBytes) ETV
attr interpolationmode none
attr source packetSentToUpper
attr title "packets passed to higher layer, vector(packetBytes)"
vector 159 TARPNetwork.node[17].wlan[0].mac rcvdPkFromHl:vector(packetBytes) ETV
attr interpolationmode none
attr source packetReceivedFromUpper
attr title "packets received from higher layer, vector(packetBytes)"
vector 160 TARPNetwork.node[17].wlan[0].mac.queue packetPushed:vector(packetBytes) ETV
attr interpolationmode none
attr title "packet pushed, vector(packetBytes)"
vector 161 TARPNetwork.node[17].wlan[0].mac.queue queueLength:vector ETV
attr interpolationmode sample-hold
attr source "count(packetPushed) - count(packetPopped) - count(packetRemoved) - count(packetDropped)"
attr title "queue length, vector"
vector 162 TARPNetwork.node[17].wlan[0].mac.queue packetPopped:vector(packetBytes) ETV
attr interpolationmode none
attr title "packet popped, vector(packetBytes)"
vector 163 TARPNetwork.node[17].wlan[0].mac.queue queueingTime:vector ETV
attr interpolationmode none
attr source queueingTime(packetPopped)
attr title "queueing times, vector"
attr unit s
vector 164 TARPNetwork.node[17].wlan[0].mac sentDownPk:vector(packetBytes) ETV
attr interpolationmode none
attr source packetSentToLower
attr title "packets sent to lower layer, vector(packetBytes)"
vector 165 TARPNetwork.node[13].wlan[0].mac rcvdPkFromLl:vector(packetBytes) ETV
attr interpolationmode none
attr source packetReceivedFromLower
attr title "packets received from lower layer, vector(packetBytes)"
vector 166 TARPNetwork.node[13].wlan[0].mac passedUpPk:vector(packetBytes) ETV
attr interpolationmode none
attr source packetSentToUpper
attr title "packets passed to higher layer, vector(packetBytes)"
vector 167 TARPNetwork.node[13].wlan[0].mac rcvdPkFromHl:vector(packetBytes) ETV
attr interpolationmode none
attr source packetReceivedFromUpper
attr title "packets received from higher layer, vector(packetBytes)"
vector 168 TARPNetwork.node[13].wlan[0].mac.queue packetPushed:vector(packetBytes) ETV
attr interpolationmode none
attr title "packet pushed, vector(packetBytes)"
vector 169 TARPNetwork.node[13].wlan[0].mac.queue queueLength:vector ETV
attr interpolationmode sample-hold
attr source "count(packetPushed) - count(packetPopped) - count(packetRemoved) - count(packetDropped)"
attr title "queue length, vector"
vector 170 TARPNetwork.node[13].wlan[0].mac.queue packetPopped:vector(packetBytes) ETV
attr interpolationmode none
attr title "packet popped, vector(packetBytes)"
vector 171 TARPNetwork.node[13].wlan[0].mac.queue queueingTime:vector ETV
attr interpolationmode none
attr source queueingTime(packetPopped)
attr title "queueing times, vector"
attr unit s
vector 172 TARPNetwork.node[13].wlan[0].mac sentDownPk:vector(packetBytes) ETV
attr interpolationmode none
attr source packetSentToLower
attr title "packets sent to lower layer, vector(packetBytes)"
vector 173 TARPNetwork.node[4].wlan[0].mac rcvdPkFromLl:vector(packetBytes) ETV
attr interpolationmode none
attr source packetReceivedFromLower
attr title "packets received from lower layer, vector(packetBytes)"
vector 174 TARPNetwork.node[4].wlan[0].mac passedUpPk:vector(packetBytes) ETV
attr interpolationmode none
attr source packetSentToUpper
attr title "packets passed to higher layer, vector(packetBytes)"
vector 175 TARPNetwork.node[4].wlan[0].mac rcvdPkFromHl:vector(packetBytes) ETV
attr interpolationmode none
attr source packetReceivedFromUpper
attr title "packets received from higher layer, vector(packetBytes)"
vector 176 TARPNetwork.node[4].wlan[0].mac.queue packetPushed:vector(packetBytes) ETV
attr interpolationmode none
attr title "packet pushed, vector(packetBytes)"
vector 177 TARPNetwork.node[4].wlan[0].mac.queue queueLength:vector ETV
attr interpolationmode sample-hold
attr source "count(packetPushed) - count(packetPopped) - count(packetRemoved) - count(packetDropped)"
attr title "queue length, vector"
vector 178 TARPNetwork.node[4].wlan[0].mac.queue packetPopped:vector(packetBytes) ETV
attr interpolationmode none
attr title "packet popped, vector(packetBytes)"
vector 179 TARPNetwork.node[4].wlan[0].mac.queue queueingTime:vector ETV
attr interpolationmode none
attr source queueingTime(packetPopped)
attr title "queueing times, vector"
attr unit s
vector 180 TARPNetwork.node[4].wlan[0].mac sentDownPk:vector(packetBytes) ETV
attr interpolationmode none
attr source packetSentToLower
attr title "packets sent to lower layer, vector(packetBytes)"
vector 181 TARPNetwork.node[30].wlan[0].mac rcvdPkFromLl:vector(packetBytes) ETV
attr interpolationmode none
attr source packetReceivedFromLower
attr title "packets received from lower layer, vector(packetBytes)"
vector 182 TARPNetwork.node[30].wlan[0].mac passedUpPk:vector(packetBytes) ETV
attr interpolationmode none
attr source packetSentToUpper
attr title "packets passed to higher layer, vector(packetBytes)"
vector 183 TARPNetwork.node[30].wlan[0].mac rcvdPkFromHl:vector(packetBytes) ETV
attr interpolationmode none
attr source packetReceivedFromUpper
attr title "packets received from higher layer, vector(packetBytes)"
vector 184 TARPNetwork.node[30].wlan[0].mac.queue packetPushed:vector(packetBytes) ETV
attr interpolationmode none
attr title "packet pushed, vector(packetBytes)"
vector 185 TARPNetwork.node[30].wlan[0].mac.queue queueLength:vector ETV
attr interpolationmode sample-hold
attr source "count(packetPushed) - count(packetPopped) - count(packetRemoved) - count(packetDropped)"
attr title "queue length, vector"
vector 186 TARPNetwork.node[30].wlan[0].mac.queue packetPopped:vector(packetBytes) ETV
attr interpolationmode none
attr title "packet popped, vector(packetBytes)"
vector 187 TARPNetwork.node[30].wlan[0].mac.queue queueingTime:vector ETV
attr interpolationmode none
attr source queueingTime(packetPopped)
attr title "queueing times, vector"
attr unit s
vector 188 TARPNetwork.node[30].wlan[0].mac sentDownPk:vector(packetBytes) ETV
attr interpolationmode none
attr source packetSentToLower
attr title "packets sent to lower layer, vector(packetBytes)"
vector 189 TARPNetwork.nodeA.wlan[0].mac rcvdPkFromLl:vector(packetBytes) ETV
attr interpolationmode none
attr source packetReceivedFromLower
attr title "packets received from lower layer, vector(packetBytes)"
vector 190 TARPNetwork.nodeA.wlan[0].mac passedUpPk:vector(packetBytes) ETV
attr interpolationmode none
attr source packetSentToUpper
attr title "packets passed to higher layer, vector(packetBytes)"
vector 191 TARPNetwork.node[10].wlan[0].mac rcvdPkFromLl:vector(packetBytes) ETV
attr interpolationmode none
attr source packetReceivedFromLower
attr title "packets received from lower layer, vector(packetBytes)"
vector 192 TARPNetwork.node[10].wlan[0].mac passedUpPk:vector(packetBytes) ETV
attr interpolationmode none
attr source packetSentToUpper
attr title "packets passed to higher layer, vector(packetBytes)"
vector 193 TARPNetwork.node[10].wlan[0].mac rcvdPkFromHl:vector(packetBytes) ETV
attr interpolationmode none
attr source packetReceivedFromUpper
attr title "packets received from higher layer, vector(packetBytes)"
vector 194 TARPNetwork.node[10].wlan[0].mac.queue packetPushed:vector(packetBytes) ETV
attr interpolationmode none
attr title "packet pushed, vector(packetBytes)"
vector 195 TARPNetwork.node[10].wlan[0].mac.queue queueLength:vector ETV
attr interpolationmode sample-hold
attr source "count(packetPushed) - count(packetPopped) - count(packetRemoved) - count(packetDropped)"
attr title "queue length, vector"
vector 196 TARPNetwork.node[10].wlan[0].mac.queue packetPopped:vector(packetBytes) ETV
attr interpolationmode none
attr title "packet popped, vector(packetBytes)"
vector 197 TARPNetwork.node[10].wlan[0].mac.queue queueingTime:vector ETV
attr interpolationmode none
attr source queueingTime(packetPopped)
attr title "queueing times, vector"
attr unit s
vector 198 TARPNetwork.node[10].wlan[0].mac sentDownPk:vector(packetBytes) ETV
attr interpolationmode none
attr source packetSentToLower
attr title "packets sent to lower layer, vector(packetBytes)"
vector 199 TARPNetwork.node[7].wlan[0].mac rcvdPkFromLl:vector(packetBytes) ETV
attr interpolationmode none
attr source packetReceivedFromLower
attr title "packets received from lower layer, vector(packetBytes)"
vector 200 TARPNetwork.node[7].wlan[0].mac passedUpPk:vector(packetBytes) ETV
attr interpolationmode none
attr source packetSentToUpper
attr title "packets passed to higher layer, vector(packetBytes)"
vector 201 TARPNetwork.node[7].wlan[0].mac rcvdPkFromHl:vector(packetBytes) ETV
attr interpolationmode none
attr source packetReceivedFromUpper
attr title "packets received from higher layer, vector(packetBytes)"
vector 202 TARPNetwork.node[7].wlan[0].mac.queue packetPushed:vector(packetBytes) ETV
attr interpolationmode none
attr title "packet pushed, vector(packetBytes)"
vector 203 TARPNetwork.node[7].wlan[0].mac.queue queueLength:vector ETV
attr interpolationmode sample-hold
attr source "count(packetPushed) - count(packetPopped) - count(packetRemoved) - count(packetDropped)"
attr title "queue length, vector"
vector 204 TARPNetwork.node[7].wlan[0].mac.queue packetPopped:vector(packetBytes) ETV
attr interpolationmode none
attr title "packet popped, vector(packetBytes)"
vector 205 TARPNetwork.node[7].wlan[0].mac.queue queueingTime:vector ETV
attr interpolationmode none
attr source queueingTime(packetPopped)
attr title "queueing times, vector"
attr unit s
vector 206 TARPNetwork.node[7].wlan[0].mac sentDownPk:vector(packetBytes) ETV
attr interpolationmode none
attr source packetSentToLower
attr title "packets sent to lower layer, vector(packetBytes)"
vector 207 TARPNetwork.node[12].wlan[0].mac rcvdPkFromLl:vector(packetBytes) ETV
attr interpolationmode none
attr source packetReceivedFromLower
attr title "packets received from lower layer, vector(packetBytes)"
vector 208 TARPNetwork.node[12].wlan[0].mac passedUpPk:vector(packetBytes) ETV
attr interpolationmode none
attr source packetSentToUpper
attr title "packets passed to higher layer, vector(packetBytes)"
vector 209 TARPNetwork.node[12].wlan[0].mac rcvdPkFromHl:vector(packetBytes) ETV
attr interpolationmode none
attr source packetReceivedFromUpper
attr title "packets received from higher layer, vector(packetBytes)"
vector 210 TARPNetwork.node[12].wlan[0].mac.queue packetPushed:vector(packetBytes) ETV
attr interpolationmode none
attr title "packet pushed, vector(packetBytes)"
vector 211 TARPNetwork.node[12].wlan[0].mac.queue queueLength:vector ETV
attr interpolationmode sample-hold
attr source "count(packetPushed) - count(packetPopped) - count(packetRemoved) - count(packetDropped)"
attr title "queue length, vector"
vector 212 TARPNetwork.node[12].wlan[0].mac.queue packetPopped:vector(packetBytes) ETV
attr interpolationmode none
attr title "packet popped, vector(packetBytes)"
vector 213 TARPNetwork.node[12].wlan[0].mac.queue queueingTime:vector ETV
attr interpolationmode none
attr source queueingTime(packetPopped)
attr title "queueing times, vector"
attr unit s
vector 214 TARPNetwork.node[12].wlan[0].mac sentDownPk:vector(packetBytes) ETV
attr interpolationmode none
attr source packetSentToLower
attr title "packets sent to lower layer, vector(packetBytes)"
vector 215 TARPNetwork.node[14].wlan[0].mac rcvdPkFromLl:vector(packetBytes) ETV
attr interpolationmode none
attr source packetReceivedFromLower
attr title "packets received from lower layer, vector(packetBytes)"
vector 216 TARPNetwork.node[14].wlan[0].mac passedUpPk:vector(packetBytes) ETV
attr interpolationmode none
attr source packetSentToUpper
attr title "packets passed to higher layer, vector(packetBytes)"
vector 217 TARPNetwork.node[14].wlan[0].mac rcvdPkFromHl:vector(packetBytes) ETV
attr interpolationmode none
attr source packetReceivedFromUpper
attr title "packets received from higher layer, vector(packetBytes)"
vector 218 TARPNetwork.node[14].wlan[0].mac.queue packetPushed:vector(packetBytes) ETV
attr interpolationmode none
attr title "packet pushed, vector(packetBytes)"
vector 219 TARPNetwork.node[14].wlan[0].mac.queue queueLength:vector ETV
attr interpolationmode sample-hold
attr source "count(packetPushed) - count(packetPopped) - count(packetRemoved) - count(packetDropped)"
attr title "queue length, vector"
vector 220 TARPNetwork.node[14].wlan[0].mac.queue packetPopped:vector(packetBytes) ETV
attr interpolationmode none
attr title "packet popped, vector(packetBytes)"
vector 221 TARPNetwork.node[14].wlan[0].mac.queue queueingTime:vector ETV
attr interpolationmode none
attr source queueingTime(packetPopped)
attr title "queueing times, vector"
attr unit s
vector 222 TARPNetwork.node[14].wlan[0].mac sentDownPk:vector(packetBytes) ETV
attr interpolationmode none
attr source packetSentToLower
attr title "packets sent to lower layer, vector(packetBytes)"
vector 223 TARPNetwork.node[3].wlan[0].mac rcvdPkFromLl:vector(packetBytes) ETV
attr interpolationmode none
attr source packetReceivedFromLower
attr title "packets received from lower layer, vector(packetBytes)"
vector 224 TARPNetwork.node[3].wlan[0].mac passedUpPk:vector(packetBytes) ETV
attr interpolationmode none
attr source packetSentToUpper
attr title "packets passed to higher layer, vector(packetBytes)"
vector 225 TARPNetwork.node[3].wlan[0].mac rcvdPkFromHl:vector(packetBytes) ETV
attr interpolationmode none
attr source packetReceivedFromUpper
attr title "packets received from higher layer, vector(packetBytes)"
vector 226 TARPNetwork.node[3].wlan[0].mac.queue packetPushed:vector(packetBytes) ETV
attr interpolationmode none
attr title "packet pushed, vector(packetBytes)"
vector 227 TARPNetwork.node[3].wlan[0].mac.queue queueLength:vector ETV
attr interpolationmode sample-hold
attr source "count(packetPushed) - count(packetPopped) - count(packetRemoved) - count(packetDropped)"
attr title "queue length, vector"
vector 228 TARPNetwork.node[3].wlan[0].mac.queue packetPopped:vector(packetBytes) ETV
attr interpolationmode none
attr title "packet popped, vector(packetBytes)"
vector 229 TARPNetwork.node[3].wlan[0].mac.queue queueingTime:vector ETV
attr interpolationmode none
attr source queueingTime(packetPopped)
attr title "queueing times, vector"
attr unit s
vector 230 TARPNetwork.node[3].wlan[0].mac sentDownPk:vector(packetBytes) ETV
attr interpolationmode none
attr source packetSentToLower
attr title "packets sent to lower layer, vector(packetBytes)"
vector 231 TARPNetwork.node[15].wlan[0].mac rcvdPkFromLl:vector(packetBytes) ETV
attr interpolationmode none
attr source packetReceivedFromLower
attr title "packets received from lower layer, vector(packetBytes)"
vector 232 TARPNetwork.node[15].wlan[0].mac passedUpPk:vector(packetBytes) ETV
attr interpolationmode none
attr source packetSentToUpper
attr title "packets passed to higher layer, vector(packetBytes)"
vector 233 TARPNetwork.node[15].wlan[0].mac rcvdPkFromHl:vector(packetBytes) ETV
attr interpolationmode none
attr source packetReceivedFromUpper
attr title "packets received from higher layer, vector(packetBytes)"
vector 234 TARPNetwork.node[15].wlan[0].mac.queue packetPushed:vector(packetBytes) ETV
attr interpolationmode none
attr title "packet pushed, vector(packetBytes)"
vector 235 TARPNetwork.node[15].wlan[0].mac.queue queueLength:vector ETV
attr interpolationmode sample-hold
attr source "count(packetPushed) - count(packetPopped) - count(packetRemoved) - count(packetDropped)"
attr title "queue length, vector"
vector 236 TARPNetwork.node[15].wlan[0].mac.queue packetPopped:vector(packetBytes) ETV
attr interpolationmode none
attr title "packet popped, vector(packetBytes)"
vector 237 TARPNetwork.node[15].wlan[0].mac.queue queueingTime:vector ETV
attr interpolationmode none
attr source queueingTime(packetPopped)
attr title "queueing times, vector"
attr unit s
vector 238 TARPNetwork.node[15].wlan[0].mac sentDownPk:vector(packetBytes) ETV
attr interpolationmode none
attr source packetSentToLower
attr title "packets sent to lower layer, vector(packetBytes)"
vector 239 TARPNetwork.node[22].wlan[0].mac rcvdPkFromLl:vector(packetBytes) ETV
attr interpolationmode none
attr source packetReceivedFromLower
attr title "packets received from lower layer, vector(packetBytes)"
vector 240 TARPNetwork.node[22].wlan[0].mac passedUpPk:vector(packetBytes) ETV
attr interpolationmode none
attr source packetSentToUpper
attr title "packets passed to higher layer, vector(packetBytes)"
vector 241 TARPNetwork.node[22].wlan[0].mac rcvdPkFromHl:vector(packetBytes) ETV
attr interpolationmode none
attr source packetReceivedFromUpper
attr title "packets received from higher layer, vector(packetBytes)"
vector 242 TARPNetwork.node[22].wlan[0].mac.queue packetPushed:vector(packetBytes) ETV
attr interpolationmode none
attr title "packet pushed, vector(packetBytes)"
vector 243 TARPNetwork.node[22].wlan[0].mac.queue queueLength:vector ETV
attr interpolationmode sample-hold
attr source "count(packetPushed) - count(packetPopped) - count(packetRemoved) - count(packetDropped)"
attr title "queue length, vector"
vector 244 TARPNetwork.node[22].wlan[0].mac.queue packetPopped:vector(packetBytes) ETV
attr interpolationmode none
attr title "packet popped, vector(packetBytes)"
vector 245 TARPNetwork.node[22].wlan[0].mac.queue queueingTime:vector ETV
attr interpolationmode none
attr source queueingTime(packetPopped)
attr title "queueing times, vector"
attr unit s
vector 246 TARPNetwork.node[22].wlan[0].mac sentDownPk:vector(packetBytes) ETV
attr interpolationmode none
attr source packetSentToLower
attr title "packets sent to lower layer, vector(packetBytes)"
vector 247 TARPNetwork.node[39].wlan[0].mac rcvdPkFromLl:vector(packetBytes) ETV
attr interpolationmode none
attr source packetReceivedFromLower
attr title "packets received from lower layer, vector(packetBytes)"
vector 248 TARPNetwork.node[39].wlan[0].mac passedUpPk:vector(packetBytes) ETV
attr interpolationmode none
attr source packetSentToUpper
attr title "packets passed to higher layer, vector(packetBytes)"
vector 249 TARPNetwork.node[39].wlan[0].mac rcvdPkFromHl:vector(packetBytes) ETV
attr interpolationmode none
attr source packetReceivedFromUpper
attr title "packets received from higher layer, vector(packetBytes)"
vector 250 TARPNetwork.node[39].wlan[0].mac.queue packetPushed:vector(packetBytes) ETV
attr interpolationmode none
attr title "packet pushed, vector(packetBytes)"
vector 251 TARPNetwork.node[39].wlan[0].mac.queue queueLength:vector ETV
attr interpolationmode sample-hold
attr source "count(packetPushed) - count(packetPopped) - count(packetRemoved) - count(packetDropped)"
attr title "queue length, vector"
vector 252 TARPNetwork.node[39].wlan[0].mac.queue packetPopped:vector(packetBytes) ETV
attr interpolationmode none
attr title "packet popped, vector(packetBytes)"
vector 253 TARPNetwork.node[39].wlan[0].mac.queue queueingTime:vector ETV
attr interpolationmode none
attr source queueingTime(packetPopped)
attr title "queueing times, vector"
attr unit s
vector 254 TARPNetwork.node[39].wlan[0].mac sentDownPk:vector(packetBytes) ETV
attr interpolationmode none
attr source packetSentToLower
attr title "packets sent to lower layer, vector(packetBytes)"
vector 255 TARPNetwork.node[35].wlan[0].mac rcvdPkFromLl:vector(packetBytes) ETV
attr interpolationmode none
attr source packetReceivedFromLower
attr title "packets received from lower layer, vector(packetBytes)"
vector 256 TARPNetwork.node[35].wlan[0].mac passedUpPk:vector(packetBytes) ETV
attr interpolationmode none
attr source packetSentToUpper
attr title "packets passed to higher layer, vector(packetBytes)"
vector 257 TARPNetwork.node[35].wlan[0].mac rcvdPkFromHl:vector(packetBytes) ETV
attr interpolationmode none
attr source packetReceivedFromUpper
attr title "packets received from higher layer, vector(packetBytes)"
vector 258 TARPNetwork.node[35].wlan[0].mac.queue packetPushed:vector(packetBytes) ETV
attr interpolationmode none
attr title "packet pushed, vector(packetBytes)"
vector 259 TARPNetwork.node[35].wlan[0].mac.queue queueLength:vector ETV
attr interpolationmode sample-hold
attr source "count(packetPushed) - count(packetPopped) - count(packetRemoved) - count(packetDropped)"
attr title "queue length, vector"
vector 260 TARPNetwork.node[35].wlan[0].mac.queue packetPopped:vector(packetBytes) ETV
attr interpolationmode none
attr title "packet popped, vector(packetBytes)"
vector 261 TARPNetwork.node[35].wlan[0].mac.queue queueingTime:vector ETV
attr interpolationmode none
attr source queueingTime(packetPopped)
attr title "queueing times, vector"
attr unit s
vector 262 TARPNetwork.node[35].wlan[0].mac sentDownPk:vector(packetBytes) ETV
attr interpolationmode none
attr source packetSentToLower
attr title "packets sent to lower layer, vector(packetBytes)"
vector 263 TARPNetwork.node[20].wlan[0].mac rcvdPkFromLl:vector(packetBytes) ETV
attr interpolationmode none
attr source packetReceivedFromLower
attr title "packets received from lower layer, vector(packetBytes)"
vector 264 TARPNetwork.node[20].wlan[0].mac passedUpPk:vector(packetBytes) ETV
attr interpolationmode none
attr source packetSentToUpper
attr title "packets passed to higher layer, vector(packetBytes)"
vector 265 TARPNetwork.node[20].wlan[0].mac rcvdPkFromHl:vector(packetBytes) ETV
attr interpolationmode none
attr source packetReceivedFromUpper
attr title "packets received from higher layer, vector(packetBytes)"
vector 266 TARPNetwork.node[20].wlan[0].mac.queue packetPushed:vector(packetBytes) ETV
attr interpolationmode none
attr title "packet pushed, vector(packetBytes)"
vector 267 TARPNetwork.node[20].wlan[0].mac.queue queueLength:vector ETV
attr interpolationmode sample-hold
attr source "count(packetPushed) - count(packetPopped) - count(packetRemoved) - count(packetDropped)"
attr title "queue length, vector"
vector 268 TARPNetwork.node[20].wlan[0].mac.queue packetPopped:vector(packetBytes) ETV
attr interpolationmode none
attr title "packet popped, vector(packetBytes)"
vector 269 TARPNetwork.node[20].wlan[0].mac.queue queueingTime:vector ETV
attr interpolationmode none
attr source queueingTime(packetPopped)
attr title "queueing times, vector"
attr unit s
vector 270 TARPNetwork.node[20].wlan[0].mac sentDownPk:vector(packetBytes) ETV
attr interpolationmode none
attr source packetSentToLower
attr title "packets sent to lower layer, vector(packetBytes)"
vector 271 TARPNetwork.node[28].wlan[0].mac rcvdPkFromLl:vector(packetBytes) ETV
attr interpolationmode none
attr source packetReceivedFromLower
attr title "packets received from lower layer, vector(packetBytes)"
vector 272 TARPNetwork.node[28].wlan[0].mac passedUpPk:vector(packetBytes) ETV
attr interpolationmode none
attr source packetSentToUpper
attr title "packets passed to higher layer, vector(packetBytes)"
vector 273 TARPNetwork.node[28].wlan[0].mac rcvdPkFromHl:vector(packetBytes) ETV
attr interpolationmode none
attr source packetReceivedFromUpper
attr title "packets received from higher layer, vector(packetBytes)"
vector 274 TARPNetwork.node[28].wlan[0].mac.queue packetPushed:vector(packetBytes) ETV
attr interpolationmode none
attr title "packet pushed, vector(packetBytes)"
vector 275 TARPNetwork.node[28].wlan[0].mac.queue queueLength:vector ETV
attr interpolationmode sample-hold
attr source "count(packetPushed) - count(packetPopped) - count(packetRemoved) - count(packetDropped)"
attr title "queue length, vector"
vector 276 TARPNetwork.node[28].wlan[0].mac.queue packetPopped:vector(packetBytes) ETV
attr interpolationmode none
attr title "packet popped, vector(packetBytes)"
vector 277 TARPNetwork.node[28].wlan[0].mac.queue queueingTime:vector ETV
attr interpolationmode none
attr source queueingTime(packetPopped)
attr title "queueing times, vector"
attr unit s
vector 278 TARPNetwork.node[28].wlan[0].mac sentDownPk:vector(packetBytes) ETV
attr interpolationmode none
attr source packetSentToLower
attr title "packets sent to lower layer, vector(packetBytes)"
vector 279 TARPNetwork.node[31].wlan[0].mac rcvdPkFromLl:vector(packetBytes) ETV
attr interpolationmode none
attr source packetReceivedFromLower
attr title "packets received from lower layer, vector(packetBytes)"
vector 280 TARPNetwork.node[31].wlan[0].mac passedUpPk:vector(packetBytes) ETV
attr interpolationmode none
attr source packetSentToUpper
attr title "packets passed to higher layer, vector(packetBytes)"
vector 281 TARPNetwork.node[31].wlan[0].mac rcvdPkFromHl:vector(packetBytes) ETV
attr interpolationmode none
attr source packetReceivedFromUpper
attr title "packets received from higher layer, vector(packetBytes)"
vector 282 TARPNetwork.node[31].wlan[0].mac.queue packetPushed:vector(packetBytes) ETV
attr interpolationmode none
attr title "packet pushed, vector(packetBytes)"
vector 283 TARPNetwork.node[31].wlan[0].mac.queue queueLength:vector ETV
attr interpolationmode sample-hold
attr source "count(packetPushed) - count(packetPopped) - count(packetRemoved) - count(packetDropped)"
attr title "queue length, vector"
vector 284 TARPNetwork.node[31].wlan[0].mac.queue packetPopped:vector(packetBytes) ETV
attr interpolationmode none
attr title "packet popped, vector(packetBytes)"
vector 285 TARPNetwork.node[31].wlan[0].mac.queue queueingTime:vector ETV
attr interpolationmode none
attr source queueingTime(packetPopped)
attr title "queueing times, vector"
attr unit s
vector 286 TARPNetwork.node[31].wlan[0].mac sentDownPk:vector(packetBytes) ETV
attr interpolationmode none
attr source packetSentToLower
attr title "packets sent to lower layer, vector(packetBytes)"
vector 287 TARPNetwork.node[38].wlan[0].mac rcvdPkFromLl:vector(packetBytes) ETV
attr interpolationmode none
attr source packetReceivedFromLower
attr title "packets received from lower layer, vector(packetBytes)"
vector 288 TARPNetwork.node[38].wlan[0].mac passedUpPk:vector(packetBytes) ETV
attr interpolationmode none
attr source packetSentToUpper
attr title "packets passed to higher layer, vector(packetBytes)"
vector 289 TARPNetwork.node[38].wlan[0].mac rcvdPkFromHl:vector(packetBytes) ETV
attr interpolationmode none
attr source packetReceivedFromUpper
attr title "packets received from higher layer, vector(packetBytes)"
vector 290 TARPNetwork.node[38].wlan[0].mac.queue packetPushed:vector(packetBytes) ETV
attr interpolationmode none
attr title "packet pushed, vector(packetBytes)"
vector 291 TARPNetwork.node[38].wlan[0].mac.queue queueLength:vector ETV
attr interpolationmode sample-hold
attr source "count(packetPushed) - count(packetPopped) - count(packetRemoved) - count(packetDropped)"
attr title "queue length, vector"
vector 292 TARPNetwork.node[38].wlan[0].mac.queue packetPopped:vector(packetBytes) ETV
attr interpolationmode none
attr title "packet popped, vector(packetBytes)"
vector 293 TARPNetwork.node[38].wlan[0].mac.queue queueingTime:vector ETV
attr interpolationmode none
attr source queueingTime(packetPopped)
attr title "queueing times, vector"
attr unit s
vector 294 TARPNetwork.node[38].wlan[0].mac sentDownPk:vector(packetBytes) ETV
attr interpolationmode none
attr source packetSentToLower
attr title "packets sent to lower layer, vector(packetBytes)"
vector 295 TARPNetwork.node[36].wlan[0].mac rcvdPkFromLl:vector(packetBytes) ETV
attr interpolationmode none
attr source packetReceivedFromLower
attr title "packets received from lower layer, vector(packetBytes)"
vector 296 TARPNetwork.node[36].wlan[0].mac passedUpPk:vector(packetBytes) ETV
attr interpolationmode none
attr source packetSentToUpper
attr title "packets passed to higher layer, vector(packetBytes)"
vector 297 TARPNetwork.node[36].wlan[0].mac rcvdPkFromHl:vector(packetBytes) ETV
attr interpolationmode none
attr source packetReceivedFromUpper
attr title "packets received from higher layer, vector(packetBytes)"
vector 298 TARPNetwork.node[36].wlan[0].mac.queue packetPushed:vector(packetBytes) ETV
attr interpolationmode none
attr title "packet pushed, vector(packetBytes)"
vector 299 TARPNetwork.node[36].wlan[0].mac.queue queueLength:vector ETV
attr interpolationmode sample-hold
attr source "count(packetPushed) - count(packetPopped) - count(packetRemoved) - count(packetDropped)"
attr title "queue length, vector"
vector 300 TARPNetwork.node[36].wlan[0].mac.queue packetPopped:vector(packetBytes) ETV
attr interpolationmode none
attr title "packet popped, vector(packetBytes)"
vector 301 TARPNetwork.node[36].wlan[0].mac.queue queueingTime:vector ETV
attr interpolationmode none
attr source queueingTime(packetPopped)
attr title "queueing times, vector"
attr unit s
vector 302 TARPNetwork.node[36].wlan[0].mac sentDownPk:vector(packetBytes) ETV
attr interpolationmode none
attr source packetSentToLower
attr title "packets sent to lower layer, vector(packetBytes)"
vector 303 TARPNetwork.node[32].wlan[0].mac rcvdPkFromLl:vector(packetBytes) ETV
attr interpolationmode none
attr source packetReceivedFromLower
attr title "packets received from lower layer, vector(packetBytes)"
vector 304 TARPNetwork.node[32].wlan[0].mac passedUpPk:vector(packetBytes) ETV
attr interpolationmode none
attr source packetSentToUpper
attr title "packets passed to higher layer, vector(packetBytes)"
vector 305 TARPNetwork.node[32].wlan[0].mac rcvdPkFromHl:vector(packetBytes) ETV
attr interpolationmode none
attr source packetReceivedFromUpper
attr title "packets received from higher layer, vector(packetBytes)"
vector 306 TARPNetwork.node[32].wlan[0].mac.queue packetPushed:vector(packetBytes) ETV
attr interpolationmode none
attr title "packet pushed, vector(packetBytes)"
vector 307 TARPNetwork.node[32].wlan[0].mac.queue queueLength:vector ETV
attr interpolationmode sample-hold
attr source "count(packetPushed) - count(packetPopped) - count(packetRemoved) - count(packetDropped)"
attr title "queue length, vector"
vector 308 TARPNetwork.node[32].wlan[0].mac.queue packetPopped:vector(packetBytes) ETV
attr interpolationmode none
attr title "packet popped, vector(packetBytes)"
vector 309 TARPNetwork.node[32].wlan[0].mac.queue queueingTime:vector ETV
attr interpolationmode none
attr source queueingTime(packetPopped)
attr title "queueing times, vector"
attr unit s
vector 310 TARPNetwork.node[32].wlan[0].mac sentDownPk:vector(packetBytes) ETV
attr interpolationmode none
attr source packetSentToLower
attr title "packets sent to lower layer, vector(packetBytes)"
vector 311 TARPNetwork.node[25].wlan[0].mac rcvdPkFromLl:vector(packetBytes) ETV
attr interpolationmode none
attr source packetReceivedFromLower
attr title "packets received from lower layer, vector(packetBytes)"
vector 312 TARPNetwork.node[25].wlan[0].mac passedUpPk:vector(packetBytes) ETV
attr interpolationmode none
attr source packetSentToUpper
attr title "packets passed to higher layer, vector(packetBytes)"
vector 313 TARPNetwork.node[25].wlan[0].mac rcvdPkFromHl:vector(packetBytes) ETV
attr interpolationmode none
attr source packetReceivedFromUpper
attr title "packets received from higher layer, vector(packetBytes)"
vector 314 TARPNetwork.node[25].wlan[0].mac.queue packetPushed:vector(packetBytes) ETV
attr interpolationmode none
attr title "packet pushed, vector(packetBytes)"
vector 315 TARPNetwork.node[25].wlan[0].mac.queue queueLength:vector ETV
attr interpolationmode sample-hold
attr source "count(packetPushed) - count(packetPopped) - count(packetRemoved) - count(packetDropped)"
attr title "queue length, vector"
vector 316 TARPNetwork.node[25].wlan[0].mac.queue packetPopped:vector(packetBytes) ETV
attr interpolationmode none
attr title "packet popped, vector(packetBytes)"
vector 317 TARPNetwork.node[25].wlan[0].mac.queue queueingTime:vector ETV
attr interpolationmode none
attr source queueingTime(packetPopped)
attr title "queueing times, vector"
attr unit s
vector 318 TARPNetwork.node[25].wlan[0].mac sentDownPk:vector(packetBytes) ETV
attr interpolationmode none
attr source packetSentToLower
attr title "packets sent to lower layer, vector(packetBytes)"
vector 319 TARPNetwork.node[11].wlan[0].mac rcvdPkFromLl:vector(packetBytes) ETV
attr interpolationmode none
attr source packetReceivedFromLower
attr title "packets received from lower layer, vector(packetBytes)"
vector 320 TARPNetwork.node[11].wlan[0].mac passedUpPk:vector(packetBytes) ETV
attr interpolationmode none
attr source packetSentToUpper
attr title "packets passed to higher layer, vector(packetBytes)"
vector 321 TARPNetwork.node[11].wlan[0].mac rcvdPkFromHl:vector(packetBytes) ETV
attr interpolationmode none
attr source packetReceivedFromUpper
attr title "packets received from higher layer, vector(packetBytes)"
vector 322 TARPNetwork.node[11].wlan[0].mac.queue packetPushed:vector(packetBytes) ETV
attr interpolationmode none
attr title "packet pushed, vector(packetBytes)"
vector 323 TARPNetwork.node[11].wlan[0].mac.queue queueLength:vector ETV
attr interpolationmode sample-hold
attr source "count(packetPushed) - count(packetPopped) - count(packetRemoved) - count(packetDropped)"
attr title "queue length, vector"
vector 324 TARPNetwork.node[11].wlan[0].mac.queue packetPopped:vector(packetBytes) ETV
attr interpolationmode none
attr title "packet popped, vector(packetBytes)"
vector 325 TARPNetwork.node[11].wlan[0].mac.queue queueingTime:vector ETV
attr interpolationmode none
attr source queueingTime(packetPopped)
attr title "queueing times, vector"
attr unit s
vector 326 TARPNetwork.node[11].wlan[0].mac sentDownPk:vector(packetBytes) ETV
attr interpolationmode none
attr source packetSentToLower
attr title "packets sent to lower layer, vector(packetBytes)"
vector 327 TARPNetwork.node[34].wlan[0].mac rcvdPkFromLl:vector(packetBytes) ETV
attr interpolationmode none
attr source packetReceivedFromLower
attr title "packets received from lower layer, vector(packetBytes)"
vector 328 TARPNetwork.node[34].wlan[0].mac passedUpPk:vector(packetBytes) ETV
attr interpolationmode none
attr source packetSentToUpper
attr title "packets passed to higher layer, vector(packetBytes)"
vector 329 TARPNetwork.node[34].wlan[0].mac rcvdPkFromHl:vector(packetBytes) ETV
attr interpolationmode none
attr source packetReceivedFromUpper
attr title "packets received from higher layer, vector(packetBytes)"
vector 330 TARPNetwork.node[34].wlan[0].mac.queue packetPushed:vector(packetBytes) ETV
attr interpolationmode none
attr title "packet pushed, vector(packetBytes)"
vector 331 TARPNetwork.node[34].wlan[0].mac.queue queueLength:vector ETV
attr interpolationmode sample-hold
attr source "count(packetPushed) - count(packetPopped) - count(packetRemoved) - count(packetDropped)"
attr title "queue length, vector"
vector 332 TARPNetwork.node[34].wlan[0].mac.queue packetPopped:vector(packetBytes) ETV
attr interpolationmode none
attr title "packet popped, vector(packetBytes)"
vector 333 TARPNetwork.node[34].wlan[0].mac.queue queueingTime:vector ETV
attr interpolationmode none
attr source queueingTime(packetPopped)
attr title "queueing times, vector"
attr unit s
vector 334 TARPNetwork.node[34].wlan[0].mac sentDownPk:vector(packetBytes) ETV
attr interpolationmode none
attr source packetSentToLower
attr title "packets sent to lower layer, vector(packetBytes)"
vector 335 TARPNetwork.node[26].wlan[0].mac rcvdPkFromLl:vector(packetBytes) ETV
attr interpolationmode none
attr source packetReceivedFromLower
attr title "packets received from lower layer, vector(packetBytes)"
vector 336 TARPNetwork.node[26].wlan[0].mac passedUpPk:vector(packetBytes) ETV
attr interpolationmode none
attr source packetSentToUpper
attr title "packets passed to higher layer, vector(packetBytes)"
vector 337 TARPNetwork.node[26].wlan[0].mac rcvdPkFromHl:vector(packetBytes) ETV
attr interpolationmode none
attr source packetReceivedFromUpper
attr title "packets received from higher layer, vector(packetBytes)"
vector 338 TARPNetwork.node[26].wlan[0].mac.queue packetPushed:vector(packetBytes) ETV
attr interpolationmode none
attr title "packet pushed, vector(packetBytes)"
vector 339 TARPNetwork.node[26].wlan[0].mac.queue queueLength:vector ETV
attr interpolationmode sample-hold
attr source "count(packetPushed) - count(packetPopped) - count(packetRemoved) - count(packetDropped)"
attr title "queue length, vector"
vector 340 TARPNetwork.node[26].wlan[0].mac.queue packetPopped:vector(packetBytes) ETV
attr interpolationmode none
attr title "packet popped, vector(packetBytes)"
vector 341 TARPNetwork.node[26].wlan[0].mac.queue queueingTime:vector ETV
attr interpolationmode none
attr source queueingTime(packetPopped)
attr title "queueing times, vector"
attr unit s
vector 342 TARPNetwork.node[26].wlan[0].mac sentDownPk:vector(packetBytes) ETV
attr interpolationmode none
attr source packetSentToLower
attr title "packets sent to lower layer, vector(packetBytes)"
vector 343 TARPNetwork.node[27].wlan[0].mac rcvdPkFromLl:vector(packetBytes) ETV
attr interpolationmode none
attr source packetReceivedFromLower
attr title "packets received from lower layer, vector(packetBytes)"
vector 344 TARPNetwork.node[27].wlan[0].mac passedUpPk:vector(packetBytes) ETV
attr interpolationmode none
attr source packetSentToUpper
attr title "packets passed to higher layer, vector(packetBytes)"
vector 345 TARPNetwork.node[27].wlan[0].mac rcvdPkFromHl:vector(packetBytes) ETV
attr interpolationmode none
attr source packetReceivedFromUpper
attr title "packets received from higher layer, vector(packetBytes)"
vector 346 TARPNetwork.node[27].wlan[0].mac.queue packetPushed:vector(packetBytes) ETV
attr interpolationmode none
attr title "packet pushed, vector(packetBytes)"
vector 347 TARPNetwork.node[27].wlan[0].mac.queue queueLength:vector ETV
attr interpolationmode sample-hold
attr source "count(packetPushed) - count(packetPopped) - count(packetRemoved) - count(packetDropped)"
attr title "queue length, vector"
vector 348 TARPNetwork.node[27].wlan[0].mac.queue packetPopped:vector(packetBytes) ETV
attr interpolationmode none
attr title "packet popped, vector(packetBytes)"
vector 349 TARPNetwork.node[27].wlan[0].mac.queue queueingTime:vector ETV
attr interpolationmode none
attr source queueingTime(packetPopped)
attr title "queueing times, vector"
attr unit s
vector 350 TARPNetwork.node[27].wlan[0].mac sentDownPk:vector(packetBytes) ETV
attr interpolationmode none
attr source packetSentToLower
attr title "packets sent to lower layer, vector(packetBytes)"
vector 351 TARPNetwork.node[5].wlan[0].mac rcvdPkFromLl:vector(packetBytes) ETV
attr interpolationmode none
attr source packetReceivedFromLower
attr title "packets received from lower layer, vector(packetBytes)"
vector 352 TARPNetwork.node[5].wlan[0].mac passedUpPk:vector(packetBytes) ETV
attr interpolationmode none
attr source packetSentToUpper
attr title "packets passed to higher layer, vector(packetBytes)"
vector 353 TARPNetwork.node[5].wlan[0].mac rcvdPkFromHl:vector(packetBytes) ETV
attr interpolationmode none
attr source packetReceivedFromUpper
attr title "packets received from higher layer, vector(packetBytes)"
vector 354 TARPNetwork.node[5].wlan[0].mac.queue packetPushed:vector(packetBytes) ETV
attr interpolationmode none
attr title "packet pushed, vector(packetBytes)"
vector 355 TARPNetwork.node[5].wlan[0].mac.queue queueLength:vector ETV
attr interpolationmode sample-hold
attr source "count(packetPushed) - count(packetPopped) - count(packetRemoved) - count(packetDropped)"
attr title "queue length, vector"
vector 356 TARPNetwork.node[5].wlan[0].mac.queue packetPopped:vector(packetBytes) ETV
attr interpolationmode none
attr title "packet popped, vector(packetBytes)"
vector 357 TARPNetwork.node[5].wlan[0].mac.queue queueingTime:vector ETV
attr interpolationmode none
attr source queueingTime(packetPopped)
attr title "queueing times, vector"
attr unit s
vector 358 TARPNetwork.node[5].wlan[0].mac sentDownPk:vector(packetBytes) ETV
attr interpolationmode none
attr source packetSentToLower
attr title "packets sent to lower layer, vector(packetBytes)"
vector 359 TARPNetwork.node[29].wlan[0].mac rcvdPkFromLl:vector(packetBytes) ETV
attr interpolationmode none
attr source packetReceivedFromLower
attr title "packets received from lower layer, vector(packetBytes)"
vector 360 TARPNetwork.node[29].wlan[0].mac passedUpPk:vector(packetBytes) ETV
attr interpolationmode none
attr source packetSentToUpper
attr title "packets passed to higher layer, vector(packetBytes)"
vector 361 TARPNetwork.node[29].wlan[0].mac rcvdPkFromHl:vector(packetBytes) ETV
attr interpolationmode none
attr source packetReceivedFromUpper
attr title "packets received from higher layer, vector(packetBytes)"
vector 362 TARPNetwork.node[29].wlan[0].mac.queue packetPushed:vector(packetBytes) ETV
attr interpolationmode none
attr title "packet pushed, vector(packetBytes)"
vector 363 TARPNetwork.node[29].wlan[0].mac.queue queueLength:vector ETV
attr interpolationmode sample-hold
attr source "count(packetPushed) - count(packetPopped) - count(packetRemoved) - count(packetDropped)"
attr title "queue length, vector"
vector 364 TARPNetwork.node[29].wlan[0].mac.queue packetPopped:vector(packetBytes) ETV
attr interpolationmode none
attr title "packet popped, vector(packetBytes)"
vector 365 TARPNetwork.node[29].wlan[0].mac.queue queueingTime:vector ETV
attr interpolationmode none
attr source queueingTime(packetPopped)
attr title "queueing times, vector"
attr unit s
vector 366 TARPNetwork.node[29].wlan[0].mac sentDownPk:vector(packetBytes) ETV
attr interpolationmode none
attr source packetSentToLower
attr title "packets sent to lower layer, vector(packetBytes)"
vector 367 TARPNetwork.node[37].wlan[0].mac rcvdPkFromLl:vector(packetBytes) ETV
attr interpolationmode none
attr source packetReceivedFromLower
attr title "packets received from lower layer, vector(packetBytes)"
vector 368 TARPNetwork.node[37].wlan[0].mac passedUpPk:vector(packetBytes) ETV
attr interpolationmode none
attr source packetSentToUpper
attr title "packets passed to higher layer, vector(packetBytes)"
vector 369 TARPNetwork.node[37].wlan[0].mac rcvdPkFromHl:vector(packetBytes) ETV
attr interpolationmode none
attr source packetReceivedFromUpper
attr title "packets received from higher layer, vector(packetBytes)"
vector 370 TARPNetwork.node[37].wlan[0].mac.queue packetPushed:vector(packetBytes) ETV
attr interpolationmode none
attr title "packet pushed, vector(packetBytes)"
vector 371 TARPNetwork.node[37].wlan[0].mac.queue queueLength:vector ETV
attr interpolationmode sample-hold
attr source "count(packetPushed) - count(packetPopped) - count(packetRemoved) - count(packetDropped)"
attr title "queue length, vector"
vector 372 TARPNetwork.node[37].wlan[0].mac.queue packetPopped:vector(packetBytes) ETV
attr interpolationmode none
attr title "packet popped, vector(packetBytes)"
vector 373 TARPNetwork.node[37].wlan[0].mac.queue queueingTime:vector ETV
attr interpolationmode none
attr source queueingTime(packetPopped)
attr title "queueing times, vector"
attr unit s
vector 374 TARPNetwork.node[37].wlan[0].mac sentDownPk:vector(packetBytes) ETV
attr interpolationmode none
attr source packetSentToLower
attr title "packets sent to lower layer, vector(packetBytes)"
vector 375 TARPNetwork.node[1].wlan[0].mac rcvdPkFromLl:vector(packetBytes) ETV
attr interpolationmode none
attr source packetReceivedFromLower
attr title "packets received from lower layer, vector(packetBytes)"
vector 376 TARPNetwork.node[1].wlan[0].mac passedUpPk:vector(packetBytes) ETV
attr interpolationmode none
attr source packetSentToUpper
attr title "packets passed to higher layer, vector(packetBytes)"
vector 377 TARPNetwork.node[1].wlan[0].mac rcvdPkFromHl:vector(packetBytes) ETV
attr interpolationmode none
attr source packetReceivedFromUpper
attr title "packets received from higher layer, vector(packetBytes)"
vector 378 TARPNetwork.node[1].wlan[0].mac.queue packetPushed:vector(packetBytes) ETV
attr interpolationmode none
attr title "packet pushed, vector(packetBytes)"
vector 379 TARPNetwork.node[1].wlan[0].mac.queue queueLength:vector ETV
attr interpolationmode sample-hold
attr source "count(packetPushed) - count(packetPopped) - count(packetRemoved) - count(packetDropped)"
attr title "queue length, vector"
vector 380 TARPNetwork.node[1].wlan[0].mac.queue packetPopped:vector(packetBytes) ETV
attr interpolationmode none
attr title "packet popped, vector(packetBytes)"
vector 381 TARPNetwork.node[1].wlan[0].mac.queue queueingTime:vector ETV
attr interpolationmode none
attr source queueingTime(packetPopped)
attr title "queueing times, vector"
attr unit s
vector 382 TARPNetwork.node[1].wlan[0].mac sentDownPk:vector(packetBytes) ETV
attr interpolationmode none
attr source packetSentToLower
attr title "packets sent to lower layer, vector(packetBytes)"
vector 383 TARPNetwork.node[19].wlan[0].mac rcvdPkFromLl:vector(packetBytes) ETV
attr interpolationmode none
attr source packetReceivedFromLower
attr title "packets received from lower layer, vector(packetBytes)"
vector 384 TARPNetwork.node[19].wlan[0].mac passedUpPk:vector(packetBytes) ETV
attr interpolationmode none
attr source packetSentToUpper
attr title "packets passed to higher layer, vector(packetBytes)"
vector 385 TARPNetwork.node[19].wlan[0].mac rcvdPkFromHl:vector(packetBytes) ETV
attr interpolationmode none
attr source packetReceivedFromUpper
attr title "packets received from higher layer, vector(packetBytes)"
vector 386 TARPNetwork.node[19].wlan[0].mac.queue packetPushed:vector(packetBytes) ETV
attr interpolationmode none
attr title "packet pushed, vector(packetBytes)"
vector 387 TARPNetwork.node[19].wlan[0].mac.queue queueLength:vector ETV
attr interpolationmode sample-hold
attr source "count(packetPushed) - count(packetPopped) - count(packetRemoved) - count(packetDropped)"
attr title "queue length, vector"
vector 388 TARPNetwork.node[19].wlan[0].mac.queue packetPopped:vector(packetBytes) ETV
attr interpolationmode none
attr title "packet popped, vector(packetBytes)"
vector 389 TARPNetwork.node[19].wlan[0].mac.queue queueingTime:vector ETV
attr interpolationmode none
attr source queueingTime(packetPopped)
attr title "queueing times, vector"
attr unit s
vector 390 TARPNetwork.node[19].wlan[0].mac sentDownPk:vector(packetBytes) ETV
attr interpolationmode none
attr source packetSentToLower
attr title "packets sent to lower layer, vector(packetBytes)"
vector 391 TARPNetwork.node[21].wlan[0].mac rcvdPkFromLl:vector(packetBytes) ETV
attr interpolationmode none
attr source packetReceivedFromLower
attr title "packets received from lower layer, vector(packetBytes)"
vector 392 TARPNetwork.node[21].wlan[0].mac passedUpPk:vector(packetBytes) ETV
attr interpolationmode none
attr source packetSentToUpper
attr title "packets passed to higher layer, vector(packetBytes)"
vector 393 TARPNetwork.node[21].wlan[0].mac rcvdPkFromHl:vector(packetBytes) ETV
attr interpolationmode none
attr source packetReceivedFromUpper
attr title "packets received from higher layer, vector(packetBytes)"
vector 394 TARPNetwork.node[21].wlan[0].mac.queue packetPushed:vector(packetBytes) ETV
attr interpolationmode none
attr title "packet pushed, vector(packetBytes)"
vector 395 TARPNetwork.node[21].wlan[0].mac.queue queueLength:vector ETV
attr interpolationmode sample-hold
attr source "count(packetPushed) - count(packetPopped) - count(packetRemoved) - count(packetDropped)"
attr title "queue length, vector"
vector 396 TARPNetwork.node[21].wlan[0].mac.queue packetPopped:vector(packetBytes) ETV
attr interpolationmode none
attr title "packet popped, vector(packetBytes)"
vector 397 TARPNetwork.node[21].wlan[0].mac.queue queueingTime:vector ETV
attr interpolationmode none
attr source queueingTime(packetPopped)
attr title "queueing times, vector"
attr unit s
vector 398 TARPNetwork.node[21].wlan[0].mac sentDownPk:vector(packetBytes) ETV
attr interpolationmode none
attr source packetSentToLower
attr title "packets sent to lower layer, vector(packetBytes)"
vector 399 TARPNetwork.node[2].wlan[0].mac rcvdPkFromLl:vector(packetBytes) ETV
attr interpolationmode none
attr source packetReceivedFromLower
attr title "packets received from lower layer, vector(packetBytes)"
vector 400 TARPNetwork.node[2].wlan[0].mac passedUpPk:vector(packetBytes) ETV
attr interpolationmode none
attr source packetSentToUpper
attr title "packets passed to higher layer, vector(packetBytes)"
vector 401 TARPNetwork.node[2].wlan[0].mac rcvdPkFromHl:vector(packetBytes) ETV
attr interpolationmode none
attr source packetReceivedFromUpper
attr title "packets received from higher layer, vector(packetBytes)"
vector 402 TARPNetwork.node[2].wlan[0].mac.queue packetPushed:vector(packetBytes) ETV
attr interpolationmode none
attr title "packet pushed, vector(packetBytes)"
vector 403 TARPNetwork.node[2].wlan[0].mac.queue queueLength:vector ETV
attr interpolationmode sample-hold
attr source "count(packetPushed) - count(packetPopped) - count(packetRemoved) - count(packetDropped)"
attr title "queue length, vector"
vector 404 TARPNetwork.node[2].wlan[0].mac.queue packetPopped:vector(packetBytes) ETV
attr interpolationmode none
attr title "packet popped, vector(packetBytes)"
vector 405 TARPNetwork.node[2].wlan[0].mac.queue queueingTime:vector ETV
attr interpolationmode none
attr source queueingTime(packetPopped)
attr title "queueing times, vector"
attr unit s
vector 406 TARPNetwork.node[2].wlan[0].mac sentDownPk:vector(packetBytes) ETV
attr interpolationmode none
attr source packetSentToLower
attr title "packets sent to lower layer, vector(packetBytes)"
[...]
201	392862 698 436 86904 1.000832618144 12.005411031604 24 76 76 1824 138624
202	393560 698 436 86904 1.000832618144 12.005411031604 24 76 76 1824 138624
203	394258 1348 436 86904 1.000832618144 12.005411031604 48 0 1 24 24
204	395606 698 436 86904 1.000832618144 12.005411031604 24 76 76 1824 138624
205	396304 674 436 86904 1.000832618144 12.005411031604 24 0 0 0 0
206	396978 698 436 86904 1.000832618144 12.005411031604 24 92 92 2208 203136
207	397676 1735 778 88581 1.001248615542 12.006659790534 60 92 92 5520 507840
208	399411 1735 778 88581 1.001248615542 12.006659790534 60 76 76 4560 346560
209	401146 686 780 87444 1.001248615542 12.00582727542 24 76 76 1824 138624
210	401832 686 780 87444 1.001248615542 12.00582727542 24 76 76 1824 138624
211	402518 1324 780 87444 1.001248615542 12.00582727542 48 0 1 24 24
212	403842 686 780 87444 1.001248615542 12.00582727542 24 76 76 1824 138624
213	404528 662 780 87444 1.001248615542 12.00582727542 24 0 0 0 0
214	405190 686 780 87444 1.001248615542 12.00582727542 24 92 92 2208 203136
215	405876 1722 793 88010 1.001248845995 12.0062434273 60 92 92 5520 507840
216	407598 1722 793 88010 1.001248845995 12.0062434273 60 76 76 4560 346560
217	409320 698 795 87413 1.001248845995 12.005827183458 24 76 76 1824 138624
218	410018 698 795 87413 1.001248845995 12.005827183458 24 76 76 1824 138624
219	410716 1348 795 87413 1.001248845995 12.005827183458 48 0 1 24 24
220	412064 698 795 87413 1.001248845995 12.005827183458 24 76 76 1824 138624
221	412762 674 795 87413 1.001248845995 12.005827183458 24 0 0 0 0
222	413436 698 795 87413 1.001248845995 12.005827183458 24 92 92 2208 203136
223	414134 2096 801 87988 1.001248882362 12.006243266793 72 92 92 6624 609408
224	416230 2096 801 87988 1.001248882362 12.006243266793 72 76 76 5472 415872
225	418326 698 803 86934 1.001248882362 12.005411100123 24 76 76 1824 138624
226	419024 698 803 86934 1.001248882362 12.005411100123 24 76 76 1824 138624
227	419722 1348 803 86934 1.001248882362 12.005411100123 48 0 1 24 24
228	421070 698 803 86934 1.001248882362 12.005411100123 24 76 76 1824 138624
229	421768 674 803 86934 1.001248882362 12.005411100123 24 0 0 0 0
230	422442 698 803 86934 1.001248882362 12.005411100123 24 92 92 2208 203136
231	423140 2084 806 87463 1.001248890328 12.005827329967 72 92 92 6624 609408
232	425224 2084 806 87463 1.001248890328 12.005827329967 72 76 76 5472 415872
233	427308 698 808 86338 1.001248890328 12.004994755258 24 76 76 1824 138624
234	428006 698 808 86338 1.001248890328 12.004994755258 24 76 76 1824 138624
235	428704 1348 808 86338 1.001248890328 12.004994755258 48 0 1 24 24
236	430052 698 808 86338 1.001248890328 12.004994755258 24 76 76 1824 138624
237	430750 674 808 86338 1.001248890328 12.004994755258 24 0 0 0 0
238	431424 698 808 86338 1.001248890328 12.004994755258 24 92 92 2208 203136
239	432122 2048 816 87468 1.001248925548 12.005827339008 72 92 92 6624 609408
240	434170 2048 816 87468 1.001248925548 12.005827339008 72 76 76 5472 415872
241	436218 674 818 86322 1.001248925548 12.0049947242 24 76 76 1824 138624
242	436892 674 818 86322 1.001248925548 12.0049947242 24 76 76 1824 138624
243	437566 1300 818 86322 1.001248925548 12.0049947242 48 0 1 24 24
244	438866 674 818 86322 1.001248925548 12.0049947242 24 76 76 1824 138624
245	439540 650 818 86322 1.001248925548 12.0049947242 24 0 0 0 0
246	440190 674 818 86322 1.001248925548 12.0049947242 24 92 92 2208 203136
247	440864 1746 821 87993 1.001248927457 12.006243312769 60 92 92 5520 507840
248	442610 1746 821 87993 1.001248927457 12.006243312769 60 76 76 4560 346560
249	444356 698 823 87450 1.001248927457 12.005827297989 24 76 76 1824 138624
250	445054 698 823 87450 1.001248927457 12.005827297989 24 76 76 1824 138624
251	445752 1348 823 87450 1.001248927457 12.005827297989 48 0 1 24 24
252	447100 698 823 87450 1.001248927457 12.005827297989 24 76 76 1824 138624
253	447798 674 823 87450 1.001248927457 12.005827297989 24 0 0 0 0
254	448472 698 823 87450 1.001248927457 12.005827297989 24 92 92 2208 203136
255	449170 2073 1192 87997 1.001664973137 12.006243330236 72 92 92 6624 609408
256	451243 2073 1192 87997 1.001664973137 12.006243330236 72 76 76 5472 415872
257	453316 699 1194 86947 1.001664973137 12.005411128639 24 76 76 1824 138624
258	454015 699 1194 86947 1.001664973137 12.005411128639 24 76 76 1824 138624
259	454714 1350 1194 86947 1.001664973137 12.005411128639 48 0 1 24 24
260	456064 699 1194 86947 1.001664973137 12.005411128639 24 76 76 1824 138624
261	456763 675 1194 86947 1.001664973137 12.005411128639 24 0 0 0 0
262	457438 699 1194 86947 1.001664973137 12.005411128639 24 92 92 2208 203136
263	458137 2097 1204 88001 1.001665007174 12.006243385721 72 92 92 6624 609408
264	460234 2097 1204 88001 1.001665007174 12.006243385721 72 76 76 5472 415872
265	462331 699 1206 86919 1.001665007174 12.005411068554 24 76 76 1824 138624
266	463030 699 1206 86919 1.001665007174 12.005411068554 24 76 76 1824 138624
267	463729 1350 1206 86919 1.001665007174 12.005411068554 48 0 1 24 24
268	465079 699 1206 86919 1.001665007174 12.005411068554 24 76 76 1824 138624
269	465778 675 1206 86919 1.001665007174 12.005411068554 24 0 0 0 0
270	466453 699 1206 86919 1.001665007174 12.005411068554 24 92 92 2208 203136
271	467152 2097 1227 86880 1.001665082208 12.005410933765 72 92 92 6624 609408
272	469249 2097 1227 86880 1.001665082208 12.005410933765 72 76 76 5472 415872
273	471346 699 1229 85902 1.001665082208 12.004578563378 24 76 76 1824 138624
274	472045 699 1229 85902 1.001665082208 12.004578563378 24 76 76 1824 138624
275	472744 1350 1229 85902 1.001665082208 12.004578563378 48 0 1 24 24
276	474094 699 1229 85902 1.001665082208 12.004578563378 24 76 76 1824 138624
277	474793 675 1229 85902 1.001665082208 12.004578563378 24 0 0 0 0
278	475468 699 1229 85902 1.001665082208 12.004578563378 24 92 92 2208 203136
279	476167 2097 1234 86873 1.001665113872 12.005410912524 72 92 92 6624 609408
280	478264 2097 1234 86873 1.001665113872 12.005410912524 72 76 76 5472 415872
281	480361 699 1236 85895 1.001665113872 12.004578535876 24 76 76 1824 138624
282	481060 699 1236 85895 1.001665113872 12.004578535876 24 76 76 1824 138624
283	481759 1350 1236 85895 1.001665113872 12.004578535876 48 0 1 24 24
284	483109 699 1236 85895 1.001665113872 12.004578535876 24 76 76 1824 138624
285	483808 675 1236 85895 1.001665113872 12.004578535876 24 0 0 0 0
286	484483 699 1236 85895 1.001665113872 12.004578535876 24 92 92 2208 203136
287	485182 2097 1248 87454 1.001665156681 12.005827311304 72 92 92 6624 609408
288	487279 2097 1248 87454 1.001665156681 12.005827311304 72 76 76 5472 415872
289	489376 699 1250 86358 1.001665156681 12.004994825804 24 76 76 1824 138624
290	490075 699 1250 86358 1.001665156681 12.004994825804 24 76 76 1824 138624
291	490774 1350 1250 86358 1.001665156681 12.004994825804 48 0 1 24 24
292	492124 699 1250 86358 1.001665156681 12.004994825804 24 76 76 1824 138624
293	492823 675 1250 86358 1.001665156681 12.004994825804 24 0 0 0 0
294	493498 699 1250 86358 1.001665156681 12.004994825804 24 92 92 2208 203136
295	494197 2085 1259 86877 1.001665186702 12.005410933536 72 92 92 6624 609408
296	496282 2085 1259 86877 1.001665186702 12.005410933536 72 76 76 5472 415872
297	498367 699 1261 85884 1.001665186702 12.004578519785 24 76 76 1824 138624
298	499066 699 1261 85884 1.001665186702 12.004578519785 24 76 76 1824 138624
299	499765 1350 1261 85884 1.001665186702 12.004578519785 48 0 1 24 24
300	501115 699 1261 85884 1.001665186702 12.004578519785 24 76 76 1824 138624
301	501814 675 1261 85884 1.001665186702 12.004578519785 24 0 0 0 0
302	502489 699 1261 85884 1.001665186702 12.004578519785 24 92 92 2208 203136
303	503188 687 1735 87458 1.00208123572 12.005827320799 24 92 92 2208 203136
304	503875 687 1735 87458 1.00208123572 12.005827320799 24 76 76 1824 138624
305	504562 687 1737 87460 1.00208123572 12.005827320799 24 76 76 1824 138624
306	505249 687 1737 87460 1.00208123572 12.005827320799 24 76 76 1824 138624
307	505936 1326 1737 87460 1.00208123572 12.005827320799 48 0 1 24 24
308	507262 687 1737 87460 1.00208123572 12.005827320799 24 76 76 1824 138624
309	507949 663 1737 87460 1.00208123572 12.005827320799 24 0 0 0 0
310	508612 687 1737 87460 1.00208123572 12.005827320799 24 92 92 2208 203136
311	509299 1724 1743 86870 1.002081246416 12.005410902262 60 92 92 5520 507840
312	511023 1724 1743 86870 1.002081246416 12.005410902262 60 76 76 4560 346560
313	512747 699 1745 85890 1.002081246416 12.004578534068 24 76 76 1824 138624
314	513446 699 1745 85890 1.002081246416 12.004578534068 24 76 76 1824 138624
315	514145 1350 1745 85890 1.002081246416 12.004578534068 48 0 1 24 24
316	515495 699 1745 85890 1.002081246416 12.004578534068 24 76 76 1824 138624
317	516194 675 1745 85890 1.002081246416 12.004578534068 24 0 0 0 0
318	516869 699 1745 85890 1.002081246416 12.004578534068 24 92 92 2208 203136
319	517568 2086 1753 86293 1.002081264953 12.00499466321 72 92 92 6624 609408
320	519654 2086 1753 86293 1.002081264953 12.00499466321 72 76 76 5472 415872
321	521740 699 1755 85672 1.002081264953 12.004162380633 24 76 76 1824 138624
322	522439 699 1755 85672 1.002081264953 12.004162380633 24 76 76 1824 138624
323	523138 1350 1755 85672 1.002081264953 12.004162380633 48 0 1 24 24
324	524488 699 1755 85672 1.002081264953 12.004162380633 24 76 76 1824 138624
325	525187 675 1755 85672 1.002081264953 12.004162380633 24 0 0 0 0
326	525862 699 1755 85672 1.002081264953 12.004162380633 24 92 92 2208 203136
327	526561 2098 1771 86893 1.002081298431 12.005410988013 72 92 92 6624 609408
328	528659 2098 1771 86893 1.002081298431 12.005410988013 72 76 76 5472 415872
329	530757 699 1773 85879 1.002081298431 12.004578506927 24 76 76 1824 138624
330	531456 699 1773 85879 1.002081298431 12.004578506927 24 76 76 1824 138624
331	532155 1350 1773 85879 1.002081298431 12.004578506927 48 0 1 24 24
332	533505 699 1773 85879 1.002081298431 12.004578506927 24 76 76 1824 138624
333	534204 675 1773 85879 1.002081298431 12.004578506927 24 0 0 0 0
334	534879 699 1773 85879 1.002081298431 12.004578506927 24 92 92 2208 203136
335	535578 2062 1782 86304 1.00208133797 12.004994702076 72 92 92 6624 609408
336	537640 2062 1782 86304 1.00208133797 12.004994702076 72 76 76 5472 415872
337	539702 687 1784 85662 1.00208133797 12.004162311778 24 76 76 1824 138624
338	540389 687 1784 85662 1.00208133797 12.004162311778 24 76 76 1824 138624
339	541076 1326 1784 85662 1.00208133797 12.004162311778 48 0 1 24 24
340	542402 687 1784 85662 1.00208133797 12.004162311778 24 76 76 1824 138624
341	543089 663 1784 85662 1.00208133797 12.004162311778 24 0 0 0 0
342	543752 687 1784 85662 1.00208133797 12.004162311778 24 92 92 2208 203136
343	544439 1748 1789 87420 1.002081356047 12.005827200791 60 92 92 5520 507840
344	546187 1748 1789 87420 1.002081356047 12.005827200791 60 76 76 4560 346560
345	547935 699 1791 86314 1.002081356047 12.004994718165 24 76 76 1824 138624
346	548634 699 1791 86314 1.002081356047 12.004994718165 24 76 76 1824 138624
347	549333 1350 1791 86314 1.002081356047 12.004994718165 48 0 1 24 24
348	550683 699 1791 86314 1.002081356047 12.004994718165 24 76 76 1824 138624
349	551382 675 1791 86314 1.002081356047 12.004994718165 24 0 0 0 0
350	552057 699 1791 86314 1.002081356047 12.004994718165 24 92 92 2208 203136
351	552756 2098 1795 86867 1.002081379794 12.005410887735 72 92 92 6624 609408
352	554854 2098 1795 86867 1.002081379794 12.005410887735 72 76 76 5472 415872
353	556952 699 1797 85919 1.002081379794 12.004578618691 24 76 76 1824 138624
354	557651 699 1797 85919 1.002081379794 12.004578618691 24 76 76 1824 138624
355	558350 1350 1797 85919 1.002081379794 12.004578618691 48 0 1 24 24
356	559700 699 1797 85919 1.002081379794 12.004578618691 24 76 76 1824 138624
357	560399 675 1797 85919 1.002081379794 12.004578618691 24 0 0 0 0
358	561074 699 1797 85919 1.002081379794 12.004578618691 24 92 92 2208 203136
359	561773 1724 1812 86927 1.002081412667 12.00541108179 60 92 92 5520 507840
360	563497 1724 1812 86927 1.002081412667 12.00541108179 60 76 76 4560 346560
361	565221 687 1814 86333 1.002081412667 12.00499474747 24 76 76 1824 138624
362	565908 687 1814 86333 1.002081412667 12.00499474747 24 76 76 1824 138624
363	566595 1326 1814 86333 1.002081412667 12.00499474747 48 0 1 24 24
364	567921 687 1814 86333 1.002081412667 12.00499474747 24 76 76 1824 138624
365	568608 663 1814 86333 1.002081412667 12.00499474747 24 0 0 0 0
366	569271 687 1814 86333 1.002081412667 12.00499474747 24 92 92 2208 203136
367	569958 1398 1837 86959 1.002081480105 12.005411149228 48 92 92 4416 406272
368	571356 1398 1837 86959 1.002081480105 12.005411149228 48 76 76 3648 277248
369	572754 699 1839 86390 1.002081480105 12.004994939274 24 76 76 1824 138624
370	573453 699 1839 86390 1.002081480105 12.004994939274 24 76 76 1824 138624
371	574152 1350 1839 86390 1.002081480105 12.004994939274 48 0 1 24 24
372	575502 699 1839 86390 1.002081480105 12.004994939274 24 76 76 1824 138624
373	576201 675 1839 86390 1.002081480105 12.004994939274 24 0 0 0 0
374	576876 699 1839 86390 1.002081480105 12.004994939274 24 92 92 2208 203136
375	577575 1387 2432 86899 1.002497488494 12.005411028263 48 92 92 4416 406272
376	578962 1387 2432 86899 1.002497488494 12.005411028263 48 76 76 3648 277248
377	580349 699 2434 85914 1.002497488494 12.004578617196 24 76 76 1824 138624
378	581048 699 2434 85914 1.002497488494 12.004578617196 24 76 76 1824 138624
379	581747 1350 2434 85914 1.002497488494 12.004578617196 48 0 1 24 24
380	583097 699 2434 85914 1.002497488494 12.004578617196 24 76 76 1824 138624
381	583796 675 2434 85914 1.002497488494 12.004578617196 24 0 0 0 0
382	584471 699 2434 85914 1.002497488494 12.004578617196 24 92 92 2208 203136
383	585170 1749 2456 85905 1.002497587067 12.004578565037 60 92 92 5520 507840
384	586919 1749 2456 85905 1.002497587067 12.004578565037 60 76 76 4560 346560
385	588668 699 2458 85384 1.002497587067 12.003746058519 24 76 76 1824 138624
386	589367 699 2458 85384 1.002497587067 12.003746058519 24 76 76 1824 138624
387	590066 1350 2458 85384 1.002497587067 12.003746058519 48 0 1 24 24
388	591416 699 2458 85384 1.002497587067 12.003746058519 24 76 76 1824 138624
389	592115 675 2458 85384 1.002497587067 12.003746058519 24 0 0 0 0
390	592790 699 2458 85384 1.002497587067 12.003746058519 24 92 92 2208 203136
391	593489 1387 2466 88019 1.00249759736 12.006243445096 48 92 92 4416 406272
392	594876 1387 2466 88019 1.00249759736 12.006243445096 48 76 76 3648 277248
393	596263 687 2468 86890 1.00249759736 12.005410959478 24 76 76 1824 138624
394	596950 687 2468 86890 1.00249759736 12.005410959478 24 76 76 1824 138624
395	597637 1326 2468 86890 1.00249759736 12.005410959478 48 0 1 24 24
396	598963 687 2468 86890 1.00249759736 12.005410959478 24 76 76 1824 138624
397	599650 663 2468 86890 1.00249759736 12.005410959478 24 0 0 0 0
398	600313 687 2468 86890 1.00249759736 12.005410959478 24 92 92 2208 203136
399	601000 1050 2938 85649 1.002913747362 12.004162218814 36 92 92 3312 304704
400	602050 1050 2938 85649 1.002913747362 12.004162218814 36 76 76 2736 207936
401	603100 700 2940 84998 1.002913747362 12.003329898224 24 76 76 1824 138624
402	603800 700 2940 84998 1.002913747362 12.003329898224 24 76 76 1824 138624
403	604500 1352 2940 84998 1.002913747362 12.003329898224 48 0 1 24 24
404	605852 700 2940 84998 1.002913747362 12.003329898224 24 76 76 1824 138624
405	606552 676 2940 84998 1.002913747362 12.003329898224 24 0 0 0 0
406	607228 700 2940 84998 1.002913747362 12.003329898224 24 92 92 2208 203136
407	607928 1388 2946 85646 1.00291377084 12.004162199648 48 92 92 4416 406272
408	609316 1388 2946 85646 1.00291377084 12.004162199648 48 76 76 3648 277248
409	610704 688 2948 85396 1.00291377084 12.003746153206 24 76 76 1824 138624
410	611392 688 2948 85396 1.00291377084 12.003746153206 24 76 76 1824 138624
411	612080 1328 2948 85396 1.00291377084 12.003746153206 48 0 1 24 24
412	613408 688 2948 85396 1.00291377084 12.003746153206 24 76 76 1824 138624
413	614096 664 2948 85396 1.00291377084 12.003746153206 24 0 0 0 0
414	614760 688 2948 85396 1.00291377084 12.003746153206 24 92 92 2208 203136
415	615448 1388 2951 85652 1.002913793153 12.004162239324 48 92 92 4416 406272
416	616836 1388 2951 85652 1.002913793153 12.004162239324 48 76 76 3648 277248
417	618224 688 2953 85391 1.002913793153 12.00374611353 24 76 76 1824 138624
418	618912 688 2953 85391 1.002913793153 12.00374611353 24 76 76 1824 138624
419	619600 1328 2953 85391 1.002913793153 12.00374611353 48 0 1 24 24
420	620928 688 2953 85391 1.002913793153 12.00374611353 24 76 76 1824 138624
421	621616 664 2953 85391 1.002913793153 12.00374611353 24 0 0 0 0
422	622280 688 2953 85391 1.002913793153 12.00374611353 24 92 92 2208 203136
423	622968 1376 2959 85657 1.002913801786 12.004162273238 48 92 92 4416 406272
424	624344 1376 2959 85657 1.002913801786 12.004162273238 48 76 76 3648 277248
425	625720 350 2963 84605 1.002913801786 12.002913801786 12 76 76 912 69312
426	626070 350 2963 84605 1.002913801786 12.002913801786 12 76 76 912 69312
427	626420 676 2963 84605 1.002913801786 12.002913801786 24 0 1 12 12
428	627096 350 2963 84605 1.002913801786 12.002913801786 12 76 76 912 69312
429	627446 338 2963 84605 1.002913801786 12.002913801786 12 0 0 0 0
430	627784 350 2963 84605 1.002913801786 12.002913801786 12 92 92 1104 101568
431	628134 700 2971 87423 1.002913840169 12.005827202287 24 92 92 2208 203136
432	628834 700 2971 87423 1.002913840169 12.005827202287 24 76 76 1824 138624
433	629534 700 2973 87425 1.002913840169 12.005827202287 24 76 76 1824 138624
434	630234 700 2973 87425 1.002913840169 12.005827202287 24 76 76 1824 138624
435	630934 1352 2973 87425 1.002913840169 12.005827202287 48 0 1 24 24
436	632286 700 2973 87425 1.002913840169 12.005827202287 24 76 76 1824 138624
437	632986 676 2973 87425 1.002913840169 12.005827202287 24 0 0 0 0
438	633662 700 2973 87425 1.002913840169 12.005827202287 24 92 92 2208 203136
439	634362 1400 2979 88537 1.002913847378 12.006659645912 48 92 92 4416 406272
440	635762 1400 2979 88537 1.002913847378 12.006659645912 48 76 76 3648 277248
441	637162 700 2981 87433 1.002913847378 12.005827209496 24 76 76 1824 138624
442	637862 700 2981 87433 1.002913847378 12.005827209496 24 76 76 1824 138624
443	638562 1352 2981 87433 1.002913847378 12.005827209496 48 0 1 24 24
444	639914 700 2981 87433 1.002913847378 12.005827209496 24 76 76 1824 138624
445	640614 676 2981 87433 1.002913847378 12.005827209496 24 0 0 0 0
446	641290 700 2981 87433 1.002913847378 12.005827209496 24 92 92 2208 203136
447	641990 700 3371 88013 1.003330065586 12.006243427704 24 92 92 2208 203136
448	642690 700 3371 88013 1.003330065586 12.006243427704 24 76 76 1824 138624
449	643390 700 3373 88015 1.003330065586 12.006243427704 24 76 76 1824 138624
450	644090 700 3373 88015 1.003330065586 12.006243427704 24 76 76 1824 138624
451	644790 1352 3373 88015 1.003330065586 12.006243427704 48 0 1 24 24
452	646142 700 3373 88015 1.003330065586 12.006243427704 24 76 76 1824 138624
453	646842 676 3373 88015 1.003330065586 12.006243427704 24 0 0 0 0
454	647518 700 3373 88015 1.003330065586 12.006243427704 24 92 92 2208 203136
455	648218 700 3380 88023 1.003330097825 12.006243459943 24 92 92 2208 203136
456	648918 700 3380 88023 1.003330097825 12.006243459943 24 76 76 1824 138624
457	649618 700 3382 88025 1.003330097825 12.006243459943 24 76 76 1824 138624
458	650318 700 3382 88025 1.003330097825 12.006243459943 24 76 76 1824 138624
459	651018 1352 3382 88025 1.003330097825 12.006243459943 48 0 1 24 24
460	652370 700 3382 88025 1.003330097825 12.006243459943 24 76 76 1824 138624
461	653070 676 3382 88025 1.003330097825 12.006243459943 24 0 0 0 0
462	653746 700 3382 88025 1.003330097825 12.006243459943 24 92 92 2208 203136
463	654446 340 6425 88067 1.006243645586 12.006243645586 12 0 11 66 506
464	654786 494 6425 88067 1.006243645586 12.006243645586 12 0.006243645586 0.006243645586 0.074923747032 0.00046779732244293

