version 2
run Static-0-20210917-23:58:19-13184
attr configname Static
attr datetime 20210917-23:58:19
attr experiment Static
attr inifile omnetpp.ini
attr iterationvars ""
attr iterationvarsf ""
attr measurement ""
attr network TARPNetwork
attr processid 13184
attr repetition 0
attr replication #0
attr resultdir results
attr runnumber 0
attr seedset 0
param **.node[*].mobility.typename "\"StationaryMobility\""
param **.mobility.constraintAreaMinZ 0m
param **.mobility.constraintAreaMaxZ 0m
param **.mobility.constraintAreaMinX 0m
param **.mobility.constraintAreaMinY 0m
param **.mobility.constraintAreaMaxX 500m
param **.mobility.constraintAreaMaxY 500m
param **.numNodes 60
param *.node*.typename "\"Node\""
param *.nodeA.numApps 1
param *.nodeA.app[0].typename "\"PingApp\""
param *.nodeA.app[0].destAddr "\"nodeB\""
param *.nodeA.app[0].startTime 1s
param *.nodeA.app[0].sendInterval 1s
param **.wlan[*].typename "\"AckingWirelessInterface\""
param **.bitrate 2Mbps
param **.wlan[*].radio.transmitter.communicationRange 100m
param **.wlan[*].radio.transmitter.interferenceRange 0m
param **.wlan[*].radio.transmitter.detectionRange 0m
param **.wlan[*].radio.receiver.ignoreInterference true
param *.nodeA.wlan[0].radio.displayCommunicationRange true
param *.nodeB.wlan[0].radio.displayCommunicationRange true
param *.visualizer.physicalLinkVisualizer.displayLinks false
param *.visualizer.dataLinkVisualizer.displayLinks true
param *.visualizer.networkRouteVisualizer.displayRoutes false
param *.visualizer.*LinkVisualizer.lineShift 0
param *.visualizer.networkRouteVisualizer.lineShift 0
param *.visualizer.networkRouteVisualizer.packetFilter "\"TARP*\""
param **.hasIpv4 false
param **.hasIpv6 false
param **.hasGn true
param **.forwarding true
param **.generic.typename "\"SimpleNetworkLayer\""
param **.generic.np.typename "\"TarpF\""
param **.app[*].networkProtocol "\"tarpf\""
param **.plainFlooding true
param **.ddMaxEntries 100
param **.ddDelTime 100s
param **.spdRule true
param **.spdDelTime 100s

scalar TARPNetwork.radioMedium.propagation "Arrival computation count" 1097268
scalar TARPNetwork.radioMedium "transmission count" 17988
scalar TARPNetwork.radioMedium "signal send count" 1097268
scalar TARPNetwork.radioMedium "reception computation count" 1097207
scalar TARPNetwork.radioMedium "interference computation count" 3024225
scalar TARPNetwork.radioMedium "reception decision computation count" 58024
scalar TARPNetwork.radioMedium "listening decision computation count" 1868994
scalar TARPNetwork.radioMedium "reception cache hit" 92.647155797009
attr unit %
scalar TARPNetwork.radioMedium "interference cache hit" 66.666666666667
attr unit %
scalar TARPNetwork.radioMedium "noise cache hit" 0
attr unit %
scalar TARPNetwork.radioMedium "snir cache hit" 50
attr unit %
scalar TARPNetwork.radioMedium "reception decision cache hit" 50
attr unit %
scalar TARPNetwork.radioMedium "reception result cache hit" 0
attr unit %
scalar TARPNetwork.node[0].lo[0].lo rcvdPkFromHl:count 0
attr interpolationmode none
attr source packetReceivedFromUpper
attr title "packets received from higher layer, count"
scalar TARPNetwork.node[0].lo[0].lo rcvdPkFromHl:sum(packetBytes) 0
attr interpolationmode none
attr source packetReceivedFromUpper
attr title "packets received from higher layer, sum(packetBytes)"
scalar TARPNetwork.node[0].lo[0].lo passedUpPk:count 0
attr interpolationmode none
attr source packetSentToUpper
attr title "packets passed to higher layer, count"
scalar TARPNetwork.node[0].lo[0].lo passedUpPk:sum(packetBytes) 0
attr interpolationmode none
attr source packetSentToUpper
attr title "packets passed to higher layer, sum(packetBytes)"
scalar TARPNetwork.node[0].wlan[0].mac.queue packetPopped:count 497
attr interpolationmode none
attr title "packet popped, count"
scalar TARPNetwork.node[0].wlan[0].mac.queue packetPopped:sum(packetBytes) 37772
attr interpolationmode none
attr title "packet popped, sum(packetBytes)"
statistic TARPNetwork.node[0].wlan[0].mac.queue queueingTime:histogram
field count 497
field mean 0
field stddev 0
field min 0
field max 0
field sum 0
field sqrsum 0
attr interpolationmode none
attr source queueingTime(packetPopped)
attr title "queueing times, histogram"
attr unit s
bin	-inf	0
bin	-0.5	0
bin	-0.48	0
bin	-0.46	0
bin	-0.44	0
bin	-0.42	0
bin	-0.4	0
bin	-0.38	0
bin	-0.36	0
bin	-0.34	0
bin	-0.32	0
bin	-0.3	0
bin	-0.28	0
bin	-0.26	0
bin	-0.24	0
bin	-0.22	0
bin	-0.2	0
bin	-0.18	0
bin	-0.16	0
bin	-0.14	0
bin	-0.12	0
bin	-0.1	0
bin	-0.08	0
bin	-0.06	0
bin	-0.04	0
bin	-0.02	0
bin	0	497
bin	0.02	0
bin	0.04	0
bin	0.06	0
bin	0.08	0
bin	0.1	0
bin	0.12	0
bin	0.14	0
bin	0.16	0
bin	0.18	0
bin	0.2	0
bin	0.22	0
bin	0.24	0
bin	0.26	0
bin	0.28	0
bin	0.3	0
bin	0.32	0
bin	0.34	0
bin	0.36	0
bin	0.38	0
bin	0.4	0
bin	0.42	0
bin	0.44	0
bin	0.46	0
bin	0.48	0
bin	0.5	0
scalar TARPNetwork.node[0].wlan[0].mac.queue queueLength:max 1
attr interpolationmode sample-hold
attr source "count(packetPushed) - count(packetPopped) - count(packetRemoved) - count(packetDropped)"
attr title "queue length, max"
scalar TARPNetwork.node[0].wlan[0].mac.queue queueLength:timeavg 0
attr interpolationmode sample-hold
attr source "count(packetPushed) - count(packetPopped) - count(packetRemoved) - count(packetDropped)"
attr title "queue length, timeavg"
scalar TARPNetwork.node[0].wlan[0].mac.queue packetPushed:count 497
attr interpolationmode none
attr title "packet pushed, count"
scalar TARPNetwork.node[0].wlan[0].mac.queue packetPushed:sum(packetBytes) 37772
attr interpolationmode none
attr title "packet pushed, sum(packetBytes)"
scalar TARPNetwork.node[0].wlan[0].mac.queue packetDropQueueOverflow:count 0
attr interpolationmode none
attr source packetDropReasonIsQueueOverflow(packetDropped)
attr title "packet drops: queue overflow, count"
scalar TARPNetwork.node[0].wlan[0].mac.queue packetDropQueueOverflow:sum(packetBytes) 0
attr interpolationmode none
attr source packetDropReasonIsQueueOverflow(packetDropped)
attr title "packet drops: queue overflow, sum(packetBytes)"
scalar TARPNetwork.node[0].wlan[0].mac.queue packetRemoved:count 0
attr interpolationmode none
attr title "packets removed, count"
scalar TARPNetwork.node[0].wlan[0].mac.queue packetRemoved:sum(packetBytes) 0
attr interpolationmode none
attr title "packets removed, sum(packetBytes)"
scalar TARPNetwork.node[0].wlan[0].mac rcvdPkFromLl:count 1691
attr interpolationmode none
attr source packetReceivedFromLower
attr title "packets received from lower layer, count"
scalar TARPNetwork.node[0].wlan[0].mac rcvdPkFromLl:sum(packetBytes) 155572
attr interpolationmode none
attr source packetReceivedFromLower
attr title "packets received from lower layer, sum(packetBytes)"
scalar TARPNetwork.node[0].wlan[0].mac sentDownPk:count 497
attr interpolationmode none
attr source packetSentToLower
attr title "packets sent to lower layer, count"
scalar TARPNetwork.node[0].wlan[0].mac sentDownPk:sum(packetBytes) 45724
attr interpolationmode none
attr source packetSentToLower
attr title "packets sent to lower layer, sum(packetBytes)"
scalar TARPNetwork.node[0].wlan[0].mac rcvdPkFromHl:count 497
attr interpolationmode none
attr source packetReceivedFromUpper
attr title "packets received from higher layer, count"
scalar TARPNetwork.node[0].wlan[0].mac rcvdPkFromHl:sum(packetBytes) 37772
attr interpolationmode none
attr source packetReceivedFromUpper
attr title "packets received from higher layer, sum(packetBytes)"
scalar TARPNetwork.node[0].wlan[0].mac passedUpPk:count 1691
attr interpolationmode none
attr source packetSentToUpper
attr title "packets passed to higher layer, count"
scalar TARPNetwork.node[0].wlan[0].mac passedUpPk:sum(packetBytes) 128516
attr interpolationmode none
attr source packetSentToUpper
attr title "packets passed to higher layer, sum(packetBytes)"
scalar TARPNetwork.node[0].wlan[0].mac packetDropIncorrectlyReceived:count 0
attr interpolationmode none
attr source packetDropReasonIsIncorrectlyReceived(packetDropped)
attr title "packet drop: incorrectly received, count"
scalar TARPNetwork.node[0].wlan[0].mac packetDropIncorrectlyReceived:sum(packetBytes) 0
attr interpolationmode none
attr source packetDropReasonIsIncorrectlyReceived(packetDropped)
attr title "packet drop: incorrectly received, sum(packetBytes)"
scalar TARPNetwork.node[0].wlan[0].mac packetDropInterfaceDown:count 0
attr interpolationmode none
attr source packetDropReasonIsInterfaceDown(packetDropped)
attr title "packet drop: interface down, count"
scalar TARPNetwork.node[0].wlan[0].mac packetDropInterfaceDown:sum(packetBytes) 0
attr interpolationmode none
attr source packetDropReasonIsInterfaceDown(packetDropped)
attr title "packet drop: interface down, sum(packetBytes)"
scalar TARPNetwork.node[0].wlan[0].mac packetDropNotAddressedToUs:count 0
attr interpolationmode none
attr source packetDropReasonIsNotAddressedToUs(packetDropped)
attr title "packet drop: not addressed to us, count"
scalar TARPNetwork.node[0].wlan[0].mac packetDropNotAddressedToUs:sum(packetBytes) 0
attr interpolationmode none
attr source packetDropReasonIsNotAddressedToUs(packetDropped)
attr title "packet drop: not addressed to us, sum(packetBytes)"
scalar TARPNetwork.node[0].wlan[0].mac linkBroken:count 0
attr interpolationmode none
attr source linkBroken
attr title "link break, count"
statistic TARPNetwork.node[0].wlan[0].radio minSnir:histogram
field count 0
field mean nan
field stddev nan
field min nan
field max nan
field sum 0
field sqrsum 0
attr source minimumSnir(packetSentToUpper)
attr title "Min SNIR, histogram"
bin	-inf	0
bin	0	0
bin	1	0
statistic TARPNetwork.node[0].wlan[0].radio packetErrorRate:histogram
field count 1691
field mean 0.76286221170905
field stddev 0.42545328900068
field min 0
field max 1
field sum 1290
field sqrsum 1290
attr source packetErrorRate(packetSentToUpper)
attr title "Packet error rate, histogram"
bin	-inf	0
bin	0	401
bin	1	1290
bin	2	0
statistic TARPNetwork.node[0].wlan[0].radio bitErrorRate:histogram
field count 1691
field mean 0.76286221170905
field stddev 0.42545328900068
field min 0
field max 1
field sum 1290
field sqrsum 1290
attr source bitErrorRate(packetSentToUpper)
attr title "Bit error rate, histogram"
bin	-inf	0
bin	0	401
bin	1	1290
bin	2	0
statistic TARPNetwork.node[0].wlan[0].radio symbolErrorRate:histogram
field count 1691
field mean 0.76286221170905
field stddev 0.42545328900068
field min 0
field max 1
field sum 1290
field sqrsum 1290
attr source symbolErrorRate(packetSentToUpper)
attr title "Symbol error rate, histogram"
bin	-inf	0
bin	0	401
bin	1	1290
bin	2	0
scalar TARPNetwork.node[0].wlan[0].radio transmissionState:count 995
attr interpolationmode sample-hold
attr source transmissionStateChanged
attr title "Radio transmission state, count"
scalar TARPNetwork.node[0].wlan[0].radio receptionState:count 4377
attr interpolationmode sample-hold
attr source receptionStateChanged
attr title "Radio reception state, count"
scalar TARPNetwork.node[0].wlan[0].radio radioMode:count 3
attr interpolationmode sample-hold
attr source radioModeChanged
attr title "Radio mode, count"
scalar TARPNetwork.node[0].generic.np nbDataPacketsReceived 0
scalar TARPNetwork.node[0].generic.np nbDataPacketsSent 0
scalar TARPNetwork.node[0].generic.np nbDataPacketsForwarded 497
scalar TARPNetwork.node[0].generic.np meanNbHops 0
scalar TARPNetwork.node[0].generic.np nbSPD 101
scalar TARPNetwork.node[0].udp packetReceived:count 0
attr interpolationmode none
attr source packetReceived
attr title "packets received, count"
scalar TARPNetwork.node[0].udp packetReceived:sum(packetBytes) 0
attr interpolationmode none
attr source packetReceived
attr title "packets received, sum(packetBytes)"
scalar TARPNetwork.node[0].udp packetSent:count 0
attr interpolationmode none
attr source packetSent
attr title "packets sent, count"
scalar TARPNetwork.node[0].udp packetSent:sum(packetBytes) 0
attr interpolationmode none
attr source packetSent
attr title "packets sent, sum(packetBytes)"
scalar TARPNetwork.node[0].udp passedUpPk:count 0
attr interpolationmode none
attr source packetSentToUpper
attr title "packets passed up, count"
scalar TARPNetwork.node[0].udp droppedPkWrongPort:count 0
attr interpolationmode none
attr source packetDropReasonIsNoPortFound(packetDropped)
attr title "packets dropped (wrong port), count"
scalar TARPNetwork.node[0].udp droppedPkBadChecksum:count 0
attr interpolationmode none
attr source packetDropReasonIsIncorrectlyReceived(packetDropped)
attr title "packets dropped (checksum error), count"
scalar TARPNetwork.node[1].lo[0].lo rcvdPkFromHl:count 0
attr interpolationmode none
attr source packetReceivedFromUpper
attr title "packets received from higher layer, count"
scalar TARPNetwork.node[1].lo[0].lo rcvdPkFromHl:sum(packetBytes) 0
attr interpolationmode none
attr source packetReceivedFromUpper
attr title "packets received from higher layer, sum(packetBytes)"
scalar TARPNetwork.node[1].lo[0].lo passedUpPk:count 0
attr interpolationmode none
attr source packetSentToUpper
attr title "packets passed to higher layer, count"
scalar TARPNetwork.node[1].lo[0].lo passedUpPk:sum(packetBytes) 0
attr interpolationmode none
attr source packetSentToUpper
attr title "packets passed to higher layer, sum(packetBytes)"
scalar TARPNetwork.node[1].wlan[0].mac.queue packetPopped:count 3
attr interpolationmode none
attr title "packet popped, count"
scalar TARPNetwork.node[1].wlan[0].mac.queue packetPopped:sum(packetBytes) 228
attr interpolationmode none
attr title "packet popped, sum(packetBytes)"
statistic TARPNetwork.node[1].wlan[0].mac.queue queueingTime:histogram
field count 3
field mean 0
field stddev 0
field min 0
field max 0
field sum 0
field sqrsum 0
attr interpolationmode none
attr source queueingTime(packetPopped)
attr title "queueing times, histogram"
attr unit s
bin	-inf	0
bin	-0.5	0
bin	-0.48	0
bin	-0.46	0
bin	-0.44	0
bin	-0.42	0
bin	-0.4	0
bin	-0.38	0
bin	-0.36	0
bin	-0.34	0
bin	-0.32	0
bin	-0.3	0
bin	-0.28	0
bin	-0.26	0
bin	-0.24	0
bin	-0.22	0
bin	-0.2	0
bin	-0.18	0
bin	-0.16	0
bin	-0.14	0
bin	-0.12	0
bin	-0.1	0
bin	-0.08	0
bin	-0.06	0
bin	-0.04	0
bin	-0.02	0
bin	0	3
bin	0.02	0
bin	0.04	0
bin	0.06	0
bin	0.08	0
bin	0.1	0
bin	0.12	0
bin	0.14	0
bin	0.16	0
bin	0.18	0
bin	0.2	0
bin	0.22	0
bin	0.24	0
bin	0.26	0
bin	0.28	0
bin	0.3	0
bin	0.32	0
bin	0.34	0
bin	0.36	0
bin	0.38	0
bin	0.4	0
bin	0.42	0
bin	0.44	0
bin	0.46	0
bin	0.48	0
bin	0.5	0
scalar TARPNetwork.node[1].wlan[0].mac.queue queueLength:max 1
attr interpolationmode sample-hold
attr source "count(packetPushed) - count(packetPopped) - count(packetRemoved) - count(packetDropped)"
attr title "queue length, max"
scalar TARPNetwork.node[1].wlan[0].mac.queue queueLength:timeavg 0
attr interpolationmode sample-hold
attr source "count(packetPushed) - count(packetPopped) - count(packetRemoved) - count(packetDropped)"
attr title "queue length, timeavg"
scalar TARPNetwork.node[1].wlan[0].mac.queue packetPushed:count 3
attr interpolationmode none
attr title "packet pushed, count"
scalar TARPNetwork.node[1].wlan[0].mac.queue packetPushed:sum(packetBytes) 228
attr interpolationmode none
attr title "packet pushed, sum(packetBytes)"
scalar TARPNetwork.node[1].wlan[0].mac.queue packetDropQueueOverflow:count 0
attr interpolationmode none
attr source packetDropReasonIsQueueOverflow(packetDropped)
attr title "packet drops: queue overflow, count"
scalar TARPNetwork.node[1].wlan[0].mac.queue packetDropQueueOverflow:sum(packetBytes) 0
attr interpolationmode none
attr source packetDropReasonIsQueueOverflow(packetDropped)
attr title "packet drops: queue overflow, sum(packetBytes)"
scalar TARPNetwork.node[1].wlan[0].mac.queue packetRemoved:count 0
attr interpolationmode none
attr title "packets removed, count"
scalar TARPNetwork.node[1].wlan[0].mac.queue packetRemoved:sum(packetBytes) 0
attr interpolationmode none
attr title "packets removed, sum(packetBytes)"
scalar TARPNetwork.node[1].wlan[0].mac rcvdPkFromLl:count 10
attr interpolationmode none
attr source packetReceivedFromLower
attr title "packets received from lower layer, count"
scalar TARPNetwork.node[1].wlan[0].mac rcvdPkFromLl:sum(packetBytes) 920
attr interpolationmode none
attr source packetReceivedFromLower
attr title "packets received from lower layer, sum(packetBytes)"
scalar TARPNetwork.node[1].wlan[0].mac sentDownPk:count 3
attr interpolationmode none
attr source packetSentToLower
attr title "packets sent to lower layer, count"
scalar TARPNetwork.node[1].wlan[0].mac sentDownPk:sum(packetBytes) 276
attr interpolationmode none
attr source packetSentToLower
attr title "packets sent to lower layer, sum(packetBytes)"
scalar TARPNetwork.node[1].wlan[0].mac rcvdPkFromHl:count 3
attr interpolationmode none
attr source packetReceivedFromUpper
attr title "packets received from higher layer, count"
scalar TARPNetwork.node[1].wlan[0].mac rcvdPkFromHl:sum(packetBytes) 228
attr interpolationmode none
attr source packetReceivedFromUpper
attr title "packets received from higher layer, sum(packetBytes)"
scalar TARPNetwork.node[1].wlan[0].mac passedUpPk:count 10
attr interpolationmode none
attr source packetSentToUpper
attr title "packets passed to higher layer, count"
scalar TARPNetwork.node[1].wlan[0].mac passedUpPk:sum(packetBytes) 760
attr interpolationmode none
attr source packetSentToUpper
attr title "packets passed to higher layer, sum(packetBytes)"
scalar TARPNetwork.node[1].wlan[0].mac packetDropIncorrectlyReceived:count 0
attr interpolationmode none
attr source packetDropReasonIsIncorrectlyReceived(packetDropped)
attr title "packet drop: incorrectly received, count"
scalar TARPNetwork.node[1].wlan[0].mac packetDropIncorrectlyReceived:sum(packetBytes) 0
attr interpolationmode none
attr source packetDropReasonIsIncorrectlyReceived(packetDropped)
attr title "packet drop: incorrectly received, sum(packetBytes)"
scalar TARPNetwork.node[1].wlan[0].mac packetDropInterfaceDown:count 0
attr interpolationmode none
attr source packetDropReasonIsInterfaceDown(packetDropped)
attr title "packet drop: interface down, count"
scalar TARPNetwork.node[1].wlan[0].mac packetDropInterfaceDown:sum(packetBytes) 0
attr interpolationmode none
attr source packetDropReasonIsInterfaceDown(packetDropped)
attr title "packet drop: interface down, sum(packetBytes)"
scalar TARPNetwork.node[1].wlan[0].mac packetDropNotAddressedToUs:count 0
attr interpolationmode none
attr source packetDropReasonIsNotAddressedToUs(packetDropped)
attr title "packet drop: not addressed to us, count"
scalar TARPNetwork.node[1].wlan[0].mac packetDropNotAddressedToUs:sum(packetBytes) 0
attr interpolationmode none
attr source packetDropReasonIsNotAddressedToUs(packetDropped)
attr title "packet drop: not addressed to us, sum(packetBytes)"
scalar TARPNetwork.node[1].wlan[0].mac linkBroken:count 0
attr interpolationmode none
attr source linkBroken
attr title "link break, count"
statistic TARPNetwork.node[1].wlan[0].radio minSnir:histogram
field count 0
field mean nan
field stddev nan
field min nan
field max nan
field sum 0
field sqrsum 0
attr source minimumSnir(packetSentToUpper)
attr title "Min SNIR, histogram"
bin	-inf	0
bin	0	0
bin	1	0
statistic TARPNetwork.node[1].wlan[0].radio packetErrorRate:histogram
field count 10
field mean 0.2
field stddev 0.42163702135578
field min 0
field max 1
field sum 2
field sqrsum 2
attr source packetErrorRate(packetSentToUpper)
attr title "Packet error rate, histogram"
bin	-inf	0
bin	0	8
bin	1	2
bin	2	0
statistic TARPNetwork.node[1].wlan[0].radio bitErrorRate:histogram
field count 10
field mean 0.2
field stddev 0.42163702135578
field min 0
field max 1
field sum 2
field sqrsum 2
attr source bitErrorRate(packetSentToUpper)
attr title "Bit error rate, histogram"
bin	-inf	0
bin	0	8
bin	1	2
bin	2	0
statistic TARPNetwork.node[1].wlan[0].radio symbolErrorRate:histogram
field count 10
field mean 0.2
field stddev 0.42163702135578
field min 0
field max 1
field sum 2
field sqrsum 2
attr source symbolErrorRate(packetSentToUpper)
attr title "Symbol error rate, histogram"
bin	-inf	0
bin	0	8
bin	1	2
bin	2	0
scalar TARPNetwork.node[1].wlan[0].radio transmissionState:count 7
attr interpolationmode sample-hold
attr source transmissionStateChanged
attr title "Radio transmission state, count"
scalar TARPNetwork.node[1].wlan[0].radio receptionState:count 23
attr interpolationmode sample-hold
attr source receptionStateChanged
attr title "Radio reception state, count"
scalar TARPNetwork.node[1].wlan[0].radio radioMode:count 3
attr interpolationmode sample-hold
attr source radioModeChanged
attr title "Radio mode, count"
scalar TARPNetwork.node[1].generic.np nbDataPacketsReceived 0
scalar TARPNetwork.node[1].generic.np nbDataPacketsSent 0
scalar TARPNetwork.node[1].generic.np nbDataPacketsForwarded 3
scalar TARPNetwork.node[1].generic.np meanNbHops 0
scalar TARPNetwork.node[1].generic.np nbSPD 2
scalar TARPNetwork.node[1].udp packetReceived:count 0
attr interpolationmode none
attr source packetReceived
attr title "packets received, count"
scalar TARPNetwork.node[1].udp packetReceived:sum(packetBytes) 0
attr interpolationmode none
attr source packetReceived
attr title "packets received, sum(packetBytes)"
scalar TARPNetwork.node[1].udp packetSent:count 0
attr interpolationmode none
attr source packetSent
attr title "packets sent, count"
scalar TARPNetwork.node[1].udp packetSent:sum(packetBytes) 0
attr interpolationmode none
attr source packetSent
attr title "packets sent, sum(packetBytes)"
scalar TARPNetwork.node[1].udp passedUpPk:count 0
attr interpolationmode none
attr source packetSentToUpper
attr title "packets passed up, count"
scalar TARPNetwork.node[1].udp droppedPkWrongPort:count 0
attr interpolationmode none
attr source packetDropReasonIsNoPortFound(packetDropped)
attr title "packets dropped (wrong port), count"
scalar TARPNetwork.node[1].udp droppedPkBadChecksum:count 0
attr interpolationmode none
attr source packetDropReasonIsIncorrectlyReceived(packetDropped)
attr title "packets dropped (checksum error), count"
scalar TARPNetwork.node[2].lo[0].lo rcvdPkFromHl:count 0
attr interpolationmode none
attr source packetReceivedFromUpper
attr title "packets received from higher layer, count"
scalar TARPNetwork.node[2].lo[0].lo rcvdPkFromHl:sum(packetBytes) 0
attr interpolationmode none
attr source packetReceivedFromUpper
attr title "packets received from higher layer, sum(packetBytes)"
scalar TARPNetwork.node[2].lo[0].lo passedUpPk:count 0
attr interpolationmode none
attr source packetSentToUpper
attr title "packets passed to higher layer, count"
scalar TARPNetwork.node[2].lo[0].lo passedUpPk:sum(packetBytes) 0
attr interpolationmode none
attr source packetSentToUpper
attr title "packets passed to higher layer, sum(packetBytes)"
scalar TARPNetwork.node[2].wlan[0].mac.queue packetPopped:count 497
attr interpolationmode none
attr title "packet popped, count"
scalar TARPNetwork.node[2].wlan[0].mac.queue packetPopped:sum(packetBytes) 37772
attr interpolationmode none
attr title "packet popped, sum(packetBytes)"
statistic TARPNetwork.node[2].wlan[0].mac.queue queueingTime:histogram
field count 497
field mean 0
field stddev 0
field min 0
field max 0
field sum 0
field sqrsum 0
attr interpolationmode none
attr source queueingTime(packetPopped)
attr title "queueing times, histogram"
attr unit s
bin	-inf	0
bin	-0.5	0
bin	-0.48	0
bin	-0.46	0
bin	-0.44	0
bin	-0.42	0
bin	-0.4	0
bin	-0.38	0
bin	-0.36	0
bin	-0.34	0
bin	-0.32	0
bin	-0.3	0
bin	-0.28	0
bin	-0.26	0
bin	-0.24	0
bin	-0.22	0
bin	-0.2	0
bin	-0.18	0
bin	-0.16	0
bin	-0.14	0
bin	-0.12	0
bin	-0.1	0
bin	-0.08	0
bin	-0.06	0
bin	-0.04	0
bin	-0.02	0
bin	0	497
bin	0.02	0
bin	0.04	0
bin	0.06	0
bin	0.08	0
bin	0.1	0
bin	0.12	0
bin	0.14	0
bin	0.16	0
bin	0.18	0
bin	0.2	0
bin	0.22	0
bin	0.24	0
bin	0.26	0
bin	0.28	0
bin	0.3	0
bin	0.32	0
bin	0.34	0
bin	0.36	0
bin	0.38	0
bin	0.4	0
bin	0.42	0
bin	0.44	0
bin	0.46	0
bin	0.48	0
bin	0.5	0
scalar TARPNetwork.node[2].wlan[0].mac.queue queueLength:max 1
attr interpolationmode sample-hold
attr source "count(packetPushed) - count(packetPopped) - count(packetRemoved) - count(packetDropped)"
attr title "queue length, max"
scalar TARPNetwork.node[2].wlan[0].mac.queue queueLength:timeavg 0
attr interpolationmode sample-hold
attr source "count(packetPushed) - count(packetPopped) - count(packetRemoved) - count(packetDropped)"
attr title "queue length, timeavg"
scalar TARPNetwork.node[2].wlan[0].mac.queue packetPushed:count 497
attr interpolationmode none
attr title "packet pushed, count"
scalar TARPNetwork.node[2].wlan[0].mac.queue packetPushed:sum(packetBytes) 37772
attr interpolationmode none
attr title "packet pushed, sum(packetBytes)"
scalar TARPNetwork.node[2].wlan[0].mac.queue packetDropQueueOverflow:count 0
attr interpolationmode none
attr source packetDropReasonIsQueueOverflow(packetDropped)
attr title "packet drops: queue overflow, count"
scalar TARPNetwork.node[2].wlan[0].mac.queue packetDropQueueOverflow:sum(packetBytes) 0
attr interpolationmode none
attr source packetDropReasonIsQueueOverflow(packetDropped)
attr title "packet drops: queue overflow, sum(packetBytes)"
scalar TARPNetwork.node[2].wlan[0].mac.queue packetRemoved:count 0
attr interpolationmode none
attr title "packets removed, count"
scalar TARPNetwork.node[2].wlan[0].mac.queue packetRemoved:sum(packetBytes) 0
attr interpolationmode none
attr title "packets removed, sum(packetBytes)"
scalar TARPNetwork.node[2].wlan[0].mac rcvdPkFromLl:count 1397
attr interpolationmode none
attr source packetReceivedFromLower
attr title "packets received from lower layer, count"
scalar TARPNetwork.node[2].wlan[0].mac rcvdPkFromLl:sum(packetBytes) 128524
attr interpolationmode none
attr source packetReceivedFromLower
attr title "packets received from lower layer, sum(packetBytes)"
scalar TARPNetwork.node[2].wlan[0].mac sentDownPk:count 497
attr interpolationmode none
attr source packetSentToLower
attr title "packets sent to lower layer, count"
scalar TARPNetwork.node[2].wlan[0].mac sentDownPk:sum(packetBytes) 45724
attr interpolationmode none
attr source packetSentToLower
attr title "packets sent to lower layer, sum(packetBytes)"
scalar TARPNetwork.node[2].wlan[0].mac rcvdPkFromHl:count 497
attr interpolationmode none
attr source packetReceivedFromUpper
attr title "packets received from higher layer, count"
scalar TARPNetwork.node[2].wlan[0].mac rcvdPkFromHl:sum(packetBytes) 37772
attr interpolationmode none
attr source packetReceivedFromUpper
attr title "packets received from higher layer, sum(packetBytes)"
scalar TARPNetwork.node[2].wlan[0].mac passedUpPk:count 1397
attr interpolationmode none
attr source packetSentToUpper
attr title "packets passed to higher layer, count"
scalar TARPNetwork.node[2].wlan[0].mac passedUpPk:sum(packetBytes) 106172
attr interpolationmode none
attr source packetSentToUpper
attr title "packets passed to higher layer, sum(packetBytes)"
scalar TARPNetwork.node[2].wlan[0].mac packetDropIncorrectlyReceived:count 0
attr interpolationmode none
attr source packetDropReasonIsIncorrectlyReceived(packetDropped)
attr title "packet drop: incorrectly received, count"
scalar TARPNetwork.node[2].wlan[0].mac packetDropIncorrectlyReceived:sum(packetBytes) 0
attr interpolationmode none
attr source packetDropReasonIsIncorrectlyReceived(packetDropped)
attr title "packet drop: incorrectly received, sum(packetBytes)"
scalar TARPNetwork.node[2].wlan[0].mac packetDropInterfaceDown:count 0
attr interpolationmode none
attr source packetDropReasonIsInterfaceDown(packetDropped)
attr title "packet drop: interface down, count"
scalar TARPNetwork.node[2].wlan[0].mac packetDropInterfaceDown:sum(packetBytes) 0
attr interpolationmode none
attr source packetDropReasonIsInterfaceDown(packetDropped)
attr title "packet drop: interface down, sum(packetBytes)"
scalar TARPNetwork.node[2].wlan[0].mac packetDropNotAddressedToUs:count 0
attr interpolationmode none
attr source packetDropReasonIsNotAddressedToUs(packetDropped)
attr title "packet drop: not addressed to us, count"
scalar TARPNetwork.node[2].wlan[0].mac packetDropNotAddressedToUs:sum(packetBytes) 0
attr interpolationmode none
attr source packetDropReasonIsNotAddressedToUs(packetDropped)
attr title "packet drop: not addressed to us, sum(packetBytes)"
scalar TARPNetwork.node[2].wlan[0].mac linkBroken:count 0
attr interpolationmode none
attr source linkBroken
attr title "link break, count"
statistic TARPNetwork.node[2].wlan[0].radio minSnir:histogram
field count 0
field mean nan
field stddev nan
field min nan
field max nan
field sum 0
field sqrsum 0
attr source minimumSnir(packetSentToUpper)
attr title "Min SNIR, histogram"
bin	-inf	0
bin	0	0
bin	1	0
statistic TARPNetwork.node[2].wlan[0].radio packetErrorRate:histogram
field count 1397
field mean 0.8554044380816
field stddev 0.3518185425553
field min 0
field max 1
field sum 1195
field sqrsum 1195
attr source packetErrorRate(packetSentToUpper)
attr title "Packet error rate, histogram"
bin	-inf	0
bin	0	202
bin	1	1195
bin	2	0
statistic TARPNetwork.node[2].wlan[0].radio bitErrorRate:histogram
field count 1397
field mean 0.8554044380816
field stddev 0.3518185425553
field min 0
field max 1
field sum 1195
field sqrsum 1195
attr source bitErrorRate(packetSentToUpper)
attr title "Bit error rate, histogram"
bin	-inf	0
bin	0	202
bin	1	1195
bin	2	0
statistic TARPNetwork.node[2].wlan[0].radio symbolErrorRate:histogram
field count 1397
field mean 0.8554044380816
field stddev 0.3518185425553
field min 0
field max 1
field sum 1195
field sqrsum 1195
attr source symbolErrorRate(packetSentToUpper)
attr title "Symbol error rate, histogram"
bin	-inf	0
bin	0	202
bin	1	1195
bin	2	0
scalar TARPNetwork.node[2].wlan[0].radio transmissionState:count 995
attr interpolationmode sample-hold
attr source transmissionStateChanged
attr title "Radio transmission state, count"
scalar TARPNetwork.node[2].wlan[0].radio receptionState:count 3493
attr interpolationmode sample-hold
attr source receptionStateChanged
attr title "Radio reception state, count"
scalar TARPNetwork.node[2].wlan[0].radio radioMode:count 3
attr interpolationmode sample-hold
attr source radioModeChanged
attr title "Radio mode, count"
scalar TARPNetwork.node[2].generic.np nbDataPacketsReceived 0
scalar TARPNetwork.node[2].generic.np nbDataPacketsSent 0
scalar TARPNetwork.node[2].generic.np nbDataPacketsForwarded 497
scalar TARPNetwork.node[2].generic.np meanNbHops 0
scalar TARPNetwork.node[2].generic.np nbSPD 101
scalar TARPNetwork.node[2].udp packetReceived:count 0
attr interpolationmode none
attr source packetReceived
attr title "packets received, count"
scalar TARPNetwork.node[2].udp packetReceived:sum(packetBytes) 0
attr interpolationmode none
attr source packetReceived
attr title "packets received, sum(packetBytes)"
scalar TARPNetwork.node[2].udp packetSent:count 0
attr interpolationmode none
attr source packetSent
attr title "packets sent, count"
scalar TARPNetwork.node[2].udp packetSent:sum(packetBytes) 0
attr interpolationmode none
attr source packetSent
attr title "packets sent, sum(packetBytes)"
scalar TARPNetwork.node[2].udp passedUpPk:count 0
attr interpolationmode none
attr source packetSentToUpper
attr title "packets passed up, count"
scalar TARPNetwork.node[2].udp droppedPkWrongPort:count 0
attr interpolationmode none
attr source packetDropReasonIsNoPortFound(packetDropped)
attr title "packets dropped (wrong port), count"
scalar TARPNetwork.node[2].udp droppedPkBadChecksum:count 0
attr interpolationmode none
attr source packetDropReasonIsIncorrectlyReceived(packetDropped)
attr title "packets dropped (checksum error), count"
scalar TARPNetwork.node[3].lo[0].lo rcvdPkFromHl:count 0
attr interpolationmode none
attr source packetReceivedFromUpper
attr title "packets received from higher layer, count"
scalar TARPNetwork.node[3].lo[0].lo rcvdPkFromHl:sum(packetBytes) 0
attr interpolationmode none
attr source packetReceivedFromUpper
attr title "packets received from higher layer, sum(packetBytes)"
scalar TARPNetwork.node[3].lo[0].lo passedUpPk:count 0
attr interpolationmode none
attr source packetSentToUpper
attr title "packets passed to higher layer, count"
scalar TARPNetwork.node[3].lo[0].lo passedUpPk:sum(packetBytes) 0
attr interpolationmode none
attr source packetSentToUpper
attr title "packets passed to higher layer, sum(packetBytes)"
scalar TARPNetwork.node[3].wlan[0].mac.queue packetPopped:count 497
attr interpolationmode none
attr title "packet popped, count"
scalar TARPNetwork.node[3].wlan[0].mac.queue packetPopped:sum(packetBytes) 37772
attr interpolationmode none
attr title "packet popped, sum(packetBytes)"
statistic TARPNetwork.node[3].wlan[0].mac.queue queueingTime:histogram
field count 497
field mean 0
field stddev 0
field min 0
field max 0
field sum 0
field sqrsum 0
attr interpolationmode none
attr source queueingTime(packetPopped)
attr title "queueing times, histogram"
attr unit s
bin	-inf	0
bin	-0.5	0
bin	-0.48	0
bin	-0.46	0
bin	-0.44	0
bin	-0.42	0
bin	-0.4	0
bin	-0.38	0
bin	-0.36	0
bin	-0.34	0
bin	-0.32	0
bin	-0.3	0
bin	-0.28	0
bin	-0.26	0
bin	-0.24	0
bin	-0.22	0
bin	-0.2	0
bin	-0.18	0
bin	-0.16	0
bin	-0.14	0
bin	-0.12	0
bin	-0.1	0
bin	-0.08	0
bin	-0.06	0
bin	-0.04	0
bin	-0.02	0
bin	0	497
bin	0.02	0
bin	0.04	0
bin	0.06	0
bin	0.08	0
bin	0.1	0
bin	0.12	0
bin	0.14	0
bin	0.16	0
bin	0.18	0
bin	0.2	0
bin	0.22	0
bin	0.24	0
bin	0.26	0
bin	0.28	0
bin	0.3	0
bin	0.32	0
bin	0.34	0
bin	0.36	0
bin	0.38	0
bin	0.4	0
bin	0.42	0
bin	0.44	0
bin	0.46	0
bin	0.48	0
bin	0.5	0
scalar TARPNetwork.node[3].wlan[0].mac.queue queueLength:max 1
attr interpolationmode sample-hold
attr source "count(packetPushed) - count(packetPopped) - count(packetRemoved) - count(packetDropped)"
attr title "queue length, max"
scalar TARPNetwork.node[3].wlan[0].mac.queue queueLength:timeavg 0
attr interpolationmode sample-hold
attr source "count(packetPushed) - count(packetPopped) - count(packetRemoved) - count(packetDropped)"
attr title "queue length, timeavg"
scalar TARPNetwork.node[3].wlan[0].mac.queue packetPushed:count 497
attr interpolationmode none
attr title "packet pushed, count"
scalar TARPNetwork.node[3].wlan[0].mac.queue packetPushed:sum(packetBytes) 37772
attr interpolationmode none
attr title "packet pushed, sum(packetBytes)"
scalar TARPNetwork.node[3].wlan[0].mac.queue packetDropQueueOverflow:count 0
attr interpolationmode none
attr source packetDropReasonIsQueueOverflow(packetDropped)
attr title "packet drops: queue overflow, count"
scalar TARPNetwork.node[3].wlan[0].mac.queue packetDropQueueOverflow:sum(packetBytes) 0
attr interpolationmode none
attr source packetDropReasonIsQueueOverflow(packetDropped)
attr title "packet drops: queue overflow, sum(packetBytes)"
scalar TARPNetwork.node[3].wlan[0].mac.queue packetRemoved:count 0
attr interpolationmode none
attr title "packets removed, count"
scalar TARPNetwork.node[3].wlan[0].mac.queue packetRemoved:sum(packetBytes) 0
attr interpolationmode none
attr title "packets removed, sum(packetBytes)"
scalar TARPNetwork.node[3].wlan[0].mac rcvdPkFromLl:count 1198
attr interpolationmode none
attr source packetReceivedFromLower
attr title "packets received from lower layer, count"
scalar TARPNetwork.node[3].wlan[0].mac rcvdPkFromLl:sum(packetBytes) 110216
attr interpolationmode none
attr source packetReceivedFromLower
attr title "packets received from lower layer, sum(packetBytes)"
scalar TARPNetwork.node[3].wlan[0].mac sentDownPk:count 497
attr interpolationmode none
attr source packetSentToLower
attr title "packets sent to lower layer, count"
scalar TARPNetwork.node[3].wlan[0].mac sentDownPk:sum(packetBytes) 45724
attr interpolationmode none
attr source packetSentToLower
attr title "packets sent to lower layer, sum(packetBytes)"
scalar TARPNetwork.node[3].wlan[0].mac rcvdPkFromHl:count 497
attr interpolationmode none
attr source packetReceivedFromUpper
attr title "packets received from higher layer, count"
scalar TARPNetwork.node[3].wlan[0].mac rcvdPkFromHl:sum(packetBytes) 37772
attr interpolationmode none
attr source packetReceivedFromUpper
attr title "packets received from higher layer, sum(packetBytes)"
scalar TARPNetwork.node[3].wlan[0].mac passedUpPk:count 1198
attr interpolationmode none
attr source packetSentToUpper
attr title "packets passed to higher layer, count"
scalar TARPNetwork.node[3].wlan[0].mac passedUpPk:sum(packetBytes) 91048
attr interpolationmode none
attr source packetSentToUpper
attr title "packets passed to higher layer, sum(packetBytes)"
scalar TARPNetwork.node[3].wlan[0].mac packetDropIncorrectlyReceived:count 0
attr interpolationmode none
attr source packetDropReasonIsIncorrectlyReceived(packetDropped)
attr title "packet drop: incorrectly received, count"
scalar TARPNetwork.node[3].wlan[0].mac packetDropIncorrectlyReceived:sum(packetBytes) 0
attr interpolationmode none
attr source packetDropReasonIsIncorrectlyReceived(packetDropped)
attr title "packet drop: incorrectly received, sum(packetBytes)"
scalar TARPNetwork.node[3].wlan[0].mac packetDropInterfaceDown:count 0
attr interpolationmode none
attr source packetDropReasonIsInterfaceDown(packetDropped)
attr title "packet drop: interface down, count"
scalar TARPNetwork.node[3].wlan[0].mac packetDropInterfaceDown:sum(packetBytes) 0
attr interpolationmode none
attr source packetDropReasonIsInterfaceDown(packetDropped)
attr title "packet drop: interface down, sum(packetBytes)"
scalar TARPNetwork.node[3].wlan[0].mac packetDropNotAddressedToUs:count 0
attr interpolationmode none
attr source packetDropReasonIsNotAddressedToUs(packetDropped)
attr title "packet drop: not addressed to us, count"
scalar TARPNetwork.node[3].wlan[0].mac packetDropNotAddressedToUs:sum(packetBytes) 0
attr interpolationmode none
attr source packetDropReasonIsNotAddressedToUs(packetDropped)
attr title "packet drop: not addressed to us, sum(packetBytes)"
scalar TARPNetwork.node[3].wlan[0].mac linkBroken:count 0
attr interpolationmode none
attr source linkBroken
attr title "link break, count"
statistic TARPNetwork.node[3].wlan[0].radio minSnir:histogram
field count 0
field mean nan
field stddev nan
field min nan
field max nan
field sum 0
field sqrsum 0
attr source minimumSnir(packetSentToUpper)
attr title "Min SNIR, histogram"
bin	-inf	0
bin	0	0
bin	1	0
statistic TARPNetwork.node[3].wlan[0].radio packetErrorRate:histogram
field count 1198
field mean 0.5
field stddev 0.50020881186962
field min 0
field max 1
field sum 599
field sqrsum 599
attr source packetErrorRate(packetSentToUpper)
attr title "Packet error rate, histogram"
bin	-inf	0
bin	0	599
bin	1	599
bin	2	0
statistic TARPNetwork.node[3].wlan[0].radio bitErrorRate:histogram
field count 1198
field mean 0.5
field stddev 0.50020881186962
field min 0
field max 1
field sum 599
field sqrsum 599
attr source bitErrorRate(packetSentToUpper)
attr title "Bit error rate, histogram"
bin	-inf	0
bin	0	599
bin	1	599
bin	2	0
statistic TARPNetwork.node[3].wlan[0].radio symbolErrorRate:histogram
field count 1198
field mean 0.5
field stddev 0.50020881186962
field min 0
field max 1
field sum 599
field sqrsum 599
attr source symbolErrorRate(packetSentToUpper)
attr title "Symbol error rate, histogram"
bin	-inf	0
bin	0	599
bin	1	599
bin	2	0
scalar TARPNetwork.node[3].wlan[0].radio transmissionState:count 995
attr interpolationmode sample-hold
attr source transmissionStateChanged
attr title "Radio transmission state, count"
scalar TARPNetwork.node[3].wlan[0].radio receptionState:count 2996
attr interpolationmode sample-hold
attr source receptionStateChanged
attr title "Radio reception state, count"
scalar TARPNetwork.node[3].wlan[0].radio radioMode:count 3
attr interpolationmode sample-hold
attr source radioModeChanged
attr title "Radio mode, count"
scalar TARPNetwork.node[3].generic.np nbDataPacketsReceived 0
scalar TARPNetwork.node[3].generic.np nbDataPacketsSent 0
scalar TARPNetwork.node[3].generic.np nbDataPacketsForwarded 497
scalar TARPNetwork.node[3].generic.np meanNbHops 0
scalar TARPNetwork.node[3].generic.np nbSPD 101
scalar TARPNetwork.node[3].udp packetReceived:count 0
attr interpolationmode none
attr source packetReceived
attr title "packets received, count"
scalar TARPNetwork.node[3].udp packetReceived:sum(packetBytes) 0
attr interpolationmode none
attr source packetReceived
attr title "packets received, sum(packetBytes)"
scalar TARPNetwork.node[3].udp packetSent:count 0
attr interpolationmode none
attr source packetSent
attr title "packets sent, count"
scalar TARPNetwork.node[3].udp packetSent:sum(packetBytes) 0
attr interpolationmode none
attr source packetSent
attr title "packets sent, sum(packetBytes)"
scalar TARPNetwork.node[3].udp passedUpPk:count 0
attr interpolationmode none
attr source packetSentToUpper
attr title "packets passed up, count"
scalar TARPNetwork.node[3].udp droppedPkWrongPort:count 0
attr interpolationmode none
attr source packetDropReasonIsNoPortFound(packetDropped)
attr title "packets dropped (wrong port), count"
scalar TARPNetwork.node[3].udp droppedPkBadChecksum:count 0
attr interpolationmode none
attr source packetDropReasonIsIncorrectlyReceived(packetDropped)
attr title "packets dropped (checksum error), count"
scalar TARPNetwork.node[4].lo[0].lo rcvdPkFromHl:count 0
attr interpolationmode none
attr source packetReceivedFromUpper
attr title "packets received from higher layer, count"
scalar TARPNetwork.node[4].lo[0].lo rcvdPkFromHl:sum(packetBytes) 0
attr interpolationmode none
attr source packetReceivedFromUpper
attr title "packets received from higher layer, sum(packetBytes)"
scalar TARPNetwork.node[4].lo[0].lo passedUpPk:count 0
attr interpolationmode none
attr source packetSentToUpper
attr title "packets passed to higher layer, count"
scalar TARPNetwork.node[4].lo[0].lo passedUpPk:sum(packetBytes) 0
attr interpolationmode none
attr source packetSentToUpper
attr title "packets passed to higher layer, sum(packetBytes)"
scalar TARPNetwork.node[4].wlan[0].mac.queue packetPopped:count 2
attr interpolationmode none
attr title "packet popped, count"
scalar TARPNetwork.node[4].wlan[0].mac.queue packetPopped:sum(packetBytes) 152
attr interpolationmode none
attr title "packet popped, sum(packetBytes)"
statistic TARPNetwork.node[4].wlan[0].mac.queue queueingTime:histogram
field count 2
field mean 0
field stddev 0
field min 0
field max 0
field sum 0
field sqrsum 0
attr interpolationmode none
attr source queueingTime(packetPopped)
attr title "queueing times, histogram"
attr unit s
bin	-inf	0
bin	-0.5	0
bin	-0.48	0
bin	-0.46	0
bin	-0.44	0
bin	-0.42	0
bin	-0.4	0
bin	-0.38	0
bin	-0.36	0
bin	-0.34	0
bin	-0.32	0
bin	-0.3	0
bin	-0.28	0
bin	-0.26	0
bin	-0.24	0
bin	-0.22	0
bin	-0.2	0
bin	-0.18	0
bin	-0.16	0
bin	-0.14	0
bin	-0.12	0
bin	-0.1	0
bin	-0.08	0
bin	-0.06	0
bin	-0.04	0
bin	-0.02	0
bin	0	2
bin	0.02	0
bin	0.04	0
bin	0.06	0
bin	0.08	0
bin	0.1	0
bin	0.12	0
bin	0.14	0
bin	0.16	0
bin	0.18	0
bin	0.2	0
bin	0.22	0
bin	0.24	0
bin	0.26	0
bin	0.28	0
bin	0.3	0
bin	0.32	0
bin	0.34	0
bin	0.36	0
bin	0.38	0
bin	0.4	0
bin	0.42	0
bin	0.44	0
bin	0.46	0
bin	0.48	0
bin	0.5	0
scalar TARPNetwork.node[4].wlan[0].mac.queue queueLength:max 1
attr interpolationmode sample-hold
attr source "count(packetPushed) - count(packetPopped) - count(packetRemoved) - count(packetDropped)"
attr title "queue length, max"
scalar TARPNetwork.node[4].wlan[0].mac.queue queueLength:timeavg 0
attr interpolationmode sample-hold
attr source "count(packetPushed) - count(packetPopped) - count(packetRemoved) - count(packetDropped)"
attr title "queue length, timeavg"
scalar TARPNetwork.node[4].wlan[0].mac.queue packetPushed:count 2
attr interpolationmode none
attr title "packet pushed, count"
scalar TARPNetwork.node[4].wlan[0].mac.queue packetPushed:sum(packetBytes) 152
attr interpolationmode none
attr title "packet pushed, sum(packetBytes)"
scalar TARPNetwork.node[4].wlan[0].mac.queue packetDropQueueOverflow:count 0
attr interpolationmode none
attr source packetDropReasonIsQueueOverflow(packetDropped)
attr title "packet drops: queue overflow, count"
scalar TARPNetwork.node[4].wlan[0].mac.queue packetDropQueueOverflow:sum(packetBytes) 0
attr interpolationmode none
attr source packetDropReasonIsQueueOverflow(packetDropped)
attr title "packet drops: queue overflow, sum(packetBytes)"
scalar TARPNetwork.node[4].wlan[0].mac.queue packetRemoved:count 0
attr interpolationmode none
attr title "packets removed, count"
scalar TARPNetwork.node[4].wlan[0].mac.queue packetRemoved:sum(packetBytes) 0
attr interpolationmode none
attr title "packets removed, sum(packetBytes)"
scalar TARPNetwork.node[4].wlan[0].mac rcvdPkFromLl:count 4
attr interpolationmode none
attr source packetReceivedFromLower
attr title "packets received from lower layer, count"
scalar TARPNetwork.node[4].wlan[0].mac rcvdPkFromLl:sum(packetBytes) 368
attr interpolationmode none
attr source packetReceivedFromLower
attr title "packets received from lower layer, sum(packetBytes)"
scalar TARPNetwork.node[4].wlan[0].mac sentDownPk:count 2
attr interpolationmode none
attr source packetSentToLower
attr title "packets sent to lower layer, count"
scalar TARPNetwork.node[4].wlan[0].mac sentDownPk:sum(packetBytes) 184
attr interpolationmode none
attr source packetSentToLower
attr title "packets sent to lower layer, sum(packetBytes)"
scalar TARPNetwork.node[4].wlan[0].mac rcvdPkFromHl:count 2
attr interpolationmode none
attr source packetReceivedFromUpper
attr title "packets received from higher layer, count"
scalar TARPNetwork.node[4].wlan[0].mac rcvdPkFromHl:sum(packetBytes) 152
attr interpolationmode none
attr source packetReceivedFromUpper
attr title "packets received from higher layer, sum(packetBytes)"
scalar TARPNetwork.node[4].wlan[0].mac passedUpPk:count 4
attr interpolationmode none
attr source packetSentToUpper
attr title "packets passed to higher layer, count"
scalar TARPNetwork.node[4].wlan[0].mac passedUpPk:sum(packetBytes) 304
attr interpolationmode none
attr source packetSentToUpper
attr title "packets passed to higher layer, sum(packetBytes)"
scalar TARPNetwork.node[4].wlan[0].mac packetDropIncorrectlyReceived:count 0
attr interpolationmode none
attr source packetDropReasonIsIncorrectlyReceived(packetDropped)
attr title "packet drop: incorrectly received, count"
scalar TARPNetwork.node[4].wlan[0].mac packetDropIncorrectlyReceived:sum(packetBytes) 0
attr interpolationmode none
attr source packetDropReasonIsIncorrectlyReceived(packetDropped)
attr title "packet drop: incorrectly received, sum(packetBytes)"
scalar TARPNetwork.node[4].wlan[0].mac packetDropInterfaceDown:count 0
attr interpolationmode none
attr source packetDropReasonIsInterfaceDown(packetDropped)
attr title "packet drop: interface down, count"
scalar TARPNetwork.node[4].wlan[0].mac packetDropInterfaceDown:sum(packetBytes) 0
attr interpolationmode none
attr source packetDropReasonIsInterfaceDown(packetDropped)
attr title "packet drop: interface down, sum(packetBytes)"
scalar TARPNetwork.node[4].wlan[0].mac packetDropNotAddressedToUs:count 0
attr interpolationmode none
attr source packetDropReasonIsNotAddressedToUs(packetDropped)
attr title "packet drop: not addressed to us, count"
scalar TARPNetwork.node[4].wlan[0].mac packetDropNotAddressedToUs:sum(packetBytes) 0
attr interpolationmode none
attr source packetDropReasonIsNotAddressedToUs(packetDropped)
attr title "packet drop: not addressed to us, sum(packetBytes)"
scalar TARPNetwork.node[4].wlan[0].mac linkBroken:count 0
attr interpolationmode none
attr source linkBroken
attr title "link break, count"
statistic TARPNetwork.node[4].wlan[0].radio minSnir:histogram
field count 0
field mean nan
field stddev nan
field min nan
field max nan
field sum 0
field sqrsum 0
attr source minimumSnir(packetSentToUpper)
attr title "Min SNIR, histogram"
bin	-inf	0
bin	0	0
bin	1	0
statistic TARPNetwork.node[4].wlan[0].radio packetErrorRate:histogram
field count 4
field mean 1
field stddev 0
field min 1
field max 1
field sum 4
field sqrsum 4
attr source packetErrorRate(packetSentToUpper)
attr title "Packet error rate, histogram"
bin	-inf	0
bin	0	0
bin	1	4
bin	2	0
statistic TARPNetwork.node[4].wlan[0].radio bitErrorRate:histogram
field count 4
field mean 1
field stddev 0
field min 1
field max 1
field sum 4
field sqrsum 4
attr source bitErrorRate(packetSentToUpper)
attr title "Bit error rate, histogram"
bin	-inf	0
bin	0	0
bin	1	4
bin	2	0
statistic TARPNetwork.node[4].wlan[0].radio symbolErrorRate:histogram
field count 4
field mean 1
field stddev 0
field min 1
field max 1
field sum 4
field sqrsum 4
attr source symbolErrorRate(packetSentToUpper)
attr title "Symbol error rate, histogram"
bin	-inf	0
bin	0	0
bin	1	4
bin	2	0
scalar TARPNetwork.node[4].wlan[0].radio transmissionState:count 5
attr interpolationmode sample-hold
attr source transmissionStateChanged
attr title "Radio transmission state, count"
scalar TARPNetwork.node[4].wlan[0].radio receptionState:count 11
attr interpolationmode sample-hold
attr source receptionStateChanged
attr title "Radio reception state, count"
scalar TARPNetwork.node[4].wlan[0].radio radioMode:count 3
attr interpolationmode sample-hold
attr source radioModeChanged
attr title "Radio mode, count"
scalar TARPNetwork.node[4].generic.np nbDataPacketsReceived 0
scalar TARPNetwork.node[4].generic.np nbDataPacketsSent 0
scalar TARPNetwork.node[4].generic.np nbDataPacketsForwarded 2
scalar TARPNetwork.node[4].generic.np meanNbHops 0
scalar TARPNetwork.node[4].generic.np nbSPD 0
scalar TARPNetwork.node[4].udp packetReceived:count 0
attr interpolationmode none
attr source packetReceived
attr title "packets received, count"
scalar TARPNetwork.node[4].udp packetReceived:sum(packetBytes) 0
attr interpolationmode none
attr source packetReceived
attr title "packets received, sum(packetBytes)"
scalar TARPNetwork.node[4].udp packetSent:count 0
attr interpolationmode none
attr source packetSent
attr title "packets sent, count"
scalar TARPNetwork.node[4].udp packetSent:sum(packetBytes) 0
attr interpolationmode none
attr source packetSent
attr title "packets sent, sum(packetBytes)"
scalar TARPNetwork.node[4].udp passedUpPk:count 0
attr interpolationmode none
attr source packetSentToUpper
attr title "packets passed up, count"
scalar TARPNetwork.node[4].udp droppedPkWrongPort:count 0
attr interpolationmode none
attr source packetDropReasonIsNoPortFound(packetDropped)
attr title "packets dropped (wrong port), count"
scalar TARPNetwork.node[4].udp droppedPkBadChecksum:count 0
attr interpolationmode none
attr source packetDropReasonIsIncorrectlyReceived(packetDropped)
attr title "packets dropped (checksum error), count"
scalar TARPNetwork.node[5].lo[0].lo rcvdPkFromHl:count 0
attr interpolationmode none
attr source packetReceivedFromUpper
attr title "packets received from higher layer, count"
scalar TARPNetwork.node[5].lo[0].lo rcvdPkFromHl:sum(packetBytes) 0
attr interpolationmode none
attr source packetReceivedFromUpper
attr title "packets received from higher layer, sum(packetBytes)"
scalar TARPNetwork.node[5].lo[0].lo passedUpPk:count 0
attr interpolationmode none
attr source packetSentToUpper
attr title "packets passed to higher layer, count"
scalar TARPNetwork.node[5].lo[0].lo passedUpPk:sum(packetBytes) 0
attr interpolationmode none
attr source packetSentToUpper
attr title "packets passed to higher layer, sum(packetBytes)"
scalar TARPNetwork.node[5].wlan[0].mac.queue packetPopped:count 3
attr interpolationmode none
attr title "packet popped, count"
scalar TARPNetwork.node[5].wlan[0].mac.queue packetPopped:sum(packetBytes) 228
attr interpolationmode none
attr title "packet popped, sum(packetBytes)"
statistic TARPNetwork.node[5].wlan[0].mac.queue queueingTime:histogram
field count 3
field mean 0
field stddev 0
field min 0
field max 0
field sum 0
field sqrsum 0
attr interpolationmode none
attr source queueingTime(packetPopped)
attr title "queueing times, histogram"
attr unit s
bin	-inf	0
bin	-0.5	0
bin	-0.48	0
bin	-0.46	0
bin	-0.44	0
bin	-0.42	0
bin	-0.4	0
bin	-0.38	0
bin	-0.36	0
bin	-0.34	0
bin	-0.32	0
bin	-0.3	0
bin	-0.28	0
bin	-0.26	0
bin	-0.24	0
bin	-0.22	0
bin	-0.2	0
bin	-0.18	0
bin	-0.16	0
bin	-0.14	0
bin	-0.12	0
bin	-0.1	0
bin	-0.08	0
bin	-0.06	0
bin	-0.04	0
bin	-0.02	0
bin	0	3
bin	0.02	0
bin	0.04	0
bin	0.06	0
bin	0.08	0
bin	0.1	0
bin	0.12	0
bin	0.14	0
bin	0.16	0
bin	0.18	0
bin	0.2	0
bin	0.22	0
bin	0.24	0
bin	0.26	0
bin	0.28	0
bin	0.3	0
bin	0.32	0
bin	0.34	0
bin	0.36	0
bin	0.38	0
bin	0.4	0
bin	0.42	0
bin	0.44	0
bin	0.46	0
bin	0.48	0
bin	0.5	0
scalar TARPNetwork.node[5].wlan[0].mac.queue queueLength:max 1
attr interpolationmode sample-hold
attr source "count(packetPushed) - count(packetPopped) - count(packetRemoved) - count(packetDropped)"
attr title "queue length, max"
scalar TARPNetwork.node[5].wlan[0].mac.queue queueLength:timeavg 0
attr interpolationmode sample-hold
attr source "count(packetPushed) - count(packetPopped) - count(packetRemoved) - count(packetDropped)"
attr title "queue length, timeavg"
scalar TARPNetwork.node[5].wlan[0].mac.queue packetPushed:count 3
attr interpolationmode none
attr title "packet pushed, count"
scalar TARPNetwork.node[5].wlan[0].mac.queue packetPushed:sum(packetBytes) 228
attr interpolationmode none
attr title "packet pushed, sum(packetBytes)"
scalar TARPNetwork.node[5].wlan[0].mac.queue packetDropQueueOverflow:count 0
attr interpolationmode none
attr source packetDropReasonIsQueueOverflow(packetDropped)
attr title "packet drops: queue overflow, count"
scalar TARPNetwork.node[5].wlan[0].mac.queue packetDropQueueOverflow:sum(packetBytes) 0
attr interpolationmode none
attr source packetDropReasonIsQueueOverflow(packetDropped)
attr title "packet drops: queue overflow, sum(packetBytes)"
scalar TARPNetwork.node[5].wlan[0].mac.queue packetRemoved:count 0
attr interpolationmode none
attr title "packets removed, count"
scalar TARPNetwork.node[5].wlan[0].mac.queue packetRemoved:sum(packetBytes) 0
attr interpolationmode none
attr title "packets removed, sum(packetBytes)"
scalar TARPNetwork.node[5].wlan[0].mac rcvdPkFromLl:count 1196
attr interpolationmode none
attr source packetReceivedFromLower
attr title "packets received from lower layer, count"
scalar TARPNetwork.node[5].wlan[0].mac rcvdPkFromLl:sum(packetBytes) 110032
attr interpolationmode none
attr source packetReceivedFromLower
attr title "packets received from lower layer, sum(packetBytes)"
scalar TARPNetwork.node[5].wlan[0].mac sentDownPk:count 3
attr interpolationmode none
attr source packetSentToLower
attr title "packets sent to lower layer, count"
scalar TARPNetwork.node[5].wlan[0].mac sentDownPk:sum(packetBytes) 276
attr interpolationmode none
attr source packetSentToLower
attr title "packets sent to lower layer, sum(packetBytes)"
scalar TARPNetwork.node[5].wlan[0].mac rcvdPkFromHl:count 3
attr interpolationmode none
attr source packetReceivedFromUpper
attr title "packets received from higher layer, count"
scalar TARPNetwork.node[5].wlan[0].mac rcvdPkFromHl:sum(packetBytes) 228
attr interpolationmode none
attr source packetReceivedFromUpper
attr title "packets received from higher layer, sum(packetBytes)"
scalar TARPNetwork.node[5].wlan[0].mac passedUpPk:count 1196
attr interpolationmode none
attr source packetSentToUpper
attr title "packets passed to higher layer, count"
scalar TARPNetwork.node[5].wlan[0].mac passedUpPk:sum(packetBytes) 90896
attr interpolationmode none
attr source packetSentToUpper
attr title "packets passed to higher layer, sum(packetBytes)"
scalar TARPNetwork.node[5].wlan[0].mac packetDropIncorrectlyReceived:count 0
attr interpolationmode none
attr source packetDropReasonIsIncorrectlyReceived(packetDropped)
attr title "packet drop: incorrectly received, count"
scalar TARPNetwork.node[5].wlan[0].mac packetDropIncorrectlyReceived:sum(packetBytes) 0
attr interpolationmode none
attr source packetDropReasonIsIncorrectlyReceived(packetDropped)
attr title "packet drop: incorrectly received, sum(packetBytes)"
scalar TARPNetwork.node[5].wlan[0].mac packetDropInterfaceDown:count 0
attr interpolationmode none
attr source packetDropReasonIsInterfaceDown(packetDropped)
attr title "packet drop: interface down, count"
scalar TARPNetwork.node[5].wlan[0].mac packetDropInterfaceDown:sum(packetBytes) 0
attr interpolationmode none
attr source packetDropReasonIsInterfaceDown(packetDropped)
attr title "packet drop: interface down, sum(packetBytes)"
scalar TARPNetwork.node[5].wlan[0].mac packetDropNotAddressedToUs:count 0
attr interpolationmode none
attr source packetDropReasonIsNotAddressedToUs(packetDropped)
attr title "packet drop: not addressed to us, count"
scalar TARPNetwork.node[5].wlan[0].mac packetDropNotAddressedToUs:sum(packetBytes) 0
attr interpolationmode none
attr source packetDropReasonIsNotAddressedToUs(packetDropped)
attr title "packet drop: not addressed to us, sum(packetBytes)"
scalar TARPNetwork.node[5].wlan[0].mac linkBroken:count 0
attr interpolationmode none
attr source linkBroken
attr title "link break, count"
statistic TARPNetwork.node[5].wlan[0].radio minSnir:histogram
field count 0
field mean nan
field stddev nan
field min nan
field max nan
field sum 0
field sqrsum 0
attr source minimumSnir(packetSentToUpper)
attr title "Min SNIR, histogram"
bin	-inf	0
bin	0	0
bin	1	0
statistic TARPNetwork.node[5].wlan[0].radio packetErrorRate:histogram
field count 1196
field mean 0.75083612040134
field stddev 0.43270982660613
field min 0
field max 1
field sum 898
field sqrsum 898
attr source packetErrorRate(packetSentToUpper)
attr title "Packet error rate, histogram"
bin	-inf	0
bin	0	298
bin	1	898
bin	2	0
statistic TARPNetwork.node[5].wlan[0].radio bitErrorRate:histogram
field count 1196
field mean 0.75083612040134
field stddev 0.43270982660613
field min 0
field max 1
field sum 898
field sqrsum 898
attr source bitErrorRate(packetSentToUpper)
attr title "Bit error rate, histogram"
bin	-inf	0
bin	0	298
bin	1	898
bin	2	0
statistic TARPNetwork.node[5].wlan[0].radio symbolErrorRate:histogram
field count 1196
field mean 0.75083612040134
field stddev 0.43270982660613
field min 0
field max 1
field sum 898
field sqrsum 898
attr source symbolErrorRate(packetSentToUpper)
attr title "Symbol error rate, histogram"
bin	-inf	0
bin	0	298
bin	1	898
bin	2	0
scalar TARPNetwork.node[5].wlan[0].radio transmissionState:count 7
attr interpolationmode sample-hold
attr source transmissionStateChanged
attr title "Radio transmission state, count"
scalar TARPNetwork.node[5].wlan[0].radio receptionState:count 3191
attr interpolationmode sample-hold
attr source receptionStateChanged
attr title "Radio reception state, count"
scalar TARPNetwork.node[5].wlan[0].radio radioMode:count 3
attr interpolationmode sample-hold
attr source radioModeChanged
attr title "Radio mode, count"
scalar TARPNetwork.node[5].generic.np nbDataPacketsReceived 0
scalar TARPNetwork.node[5].generic.np nbDataPacketsSent 0
scalar TARPNetwork.node[5].generic.np nbDataPacketsForwarded 3
scalar TARPNetwork.node[5].generic.np meanNbHops 0
scalar TARPNetwork.node[5].generic.np nbSPD 595
scalar TARPNetwork.node[5].udp packetReceived:count 0
attr interpolationmode none
attr source packetReceived
attr title "packets received, count"
scalar TARPNetwork.node[5].udp packetReceived:sum(packetBytes) 0
attr interpolationmode none
attr source packetReceived
attr title "packets received, sum(packetBytes)"
scalar TARPNetwork.node[5].udp packetSent:count 0
attr interpolationmode none
attr source packetSent
attr title "packets sent, count"
scalar TARPNetwork.node[5].udp packetSent:sum(packetBytes) 0
attr interpolationmode none
attr source packetSent
attr title "packets sent, sum(packetBytes)"
scalar TARPNetwork.node[5].udp passedUpPk:count 0
attr interpolationmode none
attr source packetSentToUpper
attr title "packets passed up, count"
scalar TARPNetwork.node[5].udp droppedPkWrongPort:count 0
attr interpolationmode none
attr source packetDropReasonIsNoPortFound(packetDropped)
attr title "packets dropped (wrong port), count"
scalar TARPNetwork.node[5].udp droppedPkBadChecksum:count 0
attr interpolationmode none
attr source packetDropReasonIsIncorrectlyReceived(packetDropped)
attr title "packets dropped (checksum error), count"
scalar TARPNetwork.node[6].lo[0].lo rcvdPkFromHl:count 0
attr interpolationmode none
attr source packetReceivedFromUpper
attr title "packets received from higher layer, count"
scalar TARPNetwork.node[6].lo[0].lo rcvdPkFromHl:sum(packetBytes) 0
attr interpolationmode none
attr source packetReceivedFromUpper
attr title "packets received from higher layer, sum(packetBytes)"
scalar TARPNetwork.node[6].lo[0].lo passedUpPk:count 0
attr interpolationmode none
attr source packetSentToUpper
attr title "packets passed to higher layer, count"
scalar TARPNetwork.node[6].lo[0].lo passedUpPk:sum(packetBytes) 0
attr interpolationmode none
attr source packetSentToUpper
attr title "packets passed to higher layer, sum(packetBytes)"
scalar TARPNetwork.node[6].wlan[0].mac.queue packetPopped:count 598
attr interpolationmode none
attr title "packet popped, count"
scalar TARPNetwork.node[6].wlan[0].mac.queue packetPopped:sum(packetBytes) 45448
attr interpolationmode none
attr title "packet popped, sum(packetBytes)"
statistic TARPNetwork.node[6].wlan[0].mac.queue queueingTime:histogram
field count 598
field mean 0
field stddev 0
field min 0
field max 0
field sum 0
field sqrsum 0
attr interpolationmode none
attr source queueingTime(packetPopped)
attr title "queueing times, histogram"
attr unit s
bin	-inf	0
bin	-0.5	0
bin	-0.48	0
bin	-0.46	0
bin	-0.44	0
bin	-0.42	0
bin	-0.4	0
bin	-0.38	0
bin	-0.36	0
bin	-0.34	0
bin	-0.32	0
bin	-0.3	0
bin	-0.28	0
bin	-0.26	0
bin	-0.24	0
bin	-0.22	0
bin	-0.2	0
bin	-0.18	0
bin	-0.16	0
bin	-0.14	0
bin	-0.12	0
bin	-0.1	0
bin	-0.08	0
bin	-0.06	0
bin	-0.04	0
bin	-0.02	0
bin	0	598
bin	0.02	0
bin	0.04	0
bin	0.06	0
bin	0.08	0
bin	0.1	0
bin	0.12	0
bin	0.14	0
bin	0.16	0
bin	0.18	0
bin	0.2	0
bin	0.22	0
bin	0.24	0
bin	0.26	0
bin	0.28	0
bin	0.3	0
bin	0.32	0
bin	0.34	0
bin	0.36	0
bin	0.38	0
bin	0.4	0
bin	0.42	0
bin	0.44	0
bin	0.46	0
bin	0.48	0
bin	0.5	0
scalar TARPNetwork.node[6].wlan[0].mac.queue queueLength:max 1
attr interpolationmode sample-hold
attr source "count(packetPushed) - count(packetPopped) - count(packetRemoved) - count(packetDropped)"
attr title "queue length, max"
scalar TARPNetwork.node[6].wlan[0].mac.queue queueLength:timeavg 0
attr interpolationmode sample-hold
attr source "count(packetPushed) - count(packetPopped) - count(packetRemoved) - count(packetDropped)"
attr title "queue length, timeavg"
scalar TARPNetwork.node[6].wlan[0].mac.queue packetPushed:count 598
attr interpolationmode none
attr title "packet pushed, count"
scalar TARPNetwork.node[6].wlan[0].mac.queue packetPushed:sum(packetBytes) 45448
attr interpolationmode none
attr title "packet pushed, sum(packetBytes)"
scalar TARPNetwork.node[6].wlan[0].mac.queue packetDropQueueOverflow:count 0
attr interpolationmode none
attr source packetDropReasonIsQueueOverflow(packetDropped)
attr title "packet drops: queue overflow, count"
scalar TARPNetwork.node[6].wlan[0].mac.queue packetDropQueueOverflow:sum(packetBytes) 0
attr interpolationmode none
attr source packetDropReasonIsQueueOverflow(packetDropped)
attr title "packet drops: queue overflow, sum(packetBytes)"
scalar TARPNetwork.node[6].wlan[0].mac.queue packetRemoved:count 0
attr interpolationmode none
attr title "packets removed, count"
scalar TARPNetwork.node[6].wlan[0].mac.queue packetRemoved:sum(packetBytes) 0
attr interpolationmode none
attr title "packets removed, sum(packetBytes)"
scalar TARPNetwork.node[6].wlan[0].mac rcvdPkFromLl:count 1496
attr interpolationmode none
attr source packetReceivedFromLower
attr title "packets received from lower layer, count"
scalar TARPNetwork.node[6].wlan[0].mac rcvdPkFromLl:sum(packetBytes) 137632
attr interpolationmode none
attr source packetReceivedFromLower
attr title "packets received from lower layer, sum(packetBytes)"
scalar TARPNetwork.node[6].wlan[0].mac sentDownPk:count 598
attr interpolationmode none
attr source packetSentToLower
attr title "packets sent to lower layer, count"
scalar TARPNetwork.node[6].wlan[0].mac sentDownPk:sum(packetBytes) 55016
attr interpolationmode none
attr source packetSentToLower
attr title "packets sent to lower layer, sum(packetBytes)"
scalar TARPNetwork.node[6].wlan[0].mac rcvdPkFromHl:count 598
attr interpolationmode none
attr source packetReceivedFromUpper
attr title "packets received from higher layer, count"
scalar TARPNetwork.node[6].wlan[0].mac rcvdPkFromHl:sum(packetBytes) 45448
attr interpolationmode none
attr source packetReceivedFromUpper
attr title "packets received from higher layer, sum(packetBytes)"
scalar TARPNetwork.node[6].wlan[0].mac passedUpPk:count 1496
attr interpolationmode none
attr source packetSentToUpper
attr title "packets passed to higher layer, count"
scalar TARPNetwork.node[6].wlan[0].mac passedUpPk:sum(packetBytes) 113696
attr interpolationmode none
attr source packetSentToUpper
attr title "packets passed to higher layer, sum(packetBytes)"
scalar TARPNetwork.node[6].wlan[0].mac packetDropIncorrectlyReceived:count 0
attr interpolationmode none
attr source packetDropReasonIsIncorrectlyReceived(packetDropped)
attr title "packet drop: incorrectly received, count"
scalar TARPNetwork.node[6].wlan[0].mac packetDropIncorrectlyReceived:sum(packetBytes) 0
attr interpolationmode none
attr source packetDropReasonIsIncorrectlyReceived(packetDropped)
attr title "packet drop: incorrectly received, sum(packetBytes)"
scalar TARPNetwork.node[6].wlan[0].mac packetDropInterfaceDown:count 0
attr interpolationmode none
attr source packetDropReasonIsInterfaceDown(packetDropped)
attr title "packet drop: interface down, count"
scalar TARPNetwork.node[6].wlan[0].mac packetDropInterfaceDown:sum(packetBytes) 0
attr interpolationmode none
attr source packetDropReasonIsInterfaceDown(packetDropped)
attr title "packet drop: interface down, sum(packetBytes)"
scalar TARPNetwork.node[6].wlan[0].mac packetDropNotAddressedToUs:count 0
attr interpolationmode none
attr source packetDropReasonIsNotAddressedToUs(packetDropped)
attr title "packet drop: not addressed to us, count"
scalar TARPNetwork.node[6].wlan[0].mac packetDropNotAddressedToUs:sum(packetBytes) 0
attr interpolationmode none
attr source packetDropReasonIsNotAddressedToUs(packetDropped)
attr title "packet drop: not addressed to us, sum(packetBytes)"
scalar TARPNetwork.node[6].wlan[0].mac linkBroken:count 0
attr interpolationmode none
attr source linkBroken
attr title "link break, count"
statistic TARPNetwork.node[6].wlan[0].radio minSnir:histogram
field count 0
field mean nan
field stddev nan
field min nan
field max nan
field sum 0
field sqrsum 0
attr source minimumSnir(packetSentToUpper)
attr title "Min SNIR, histogram"
bin	-inf	0
bin	0	0
bin	1	0
statistic TARPNetwork.node[6].wlan[0].radio packetErrorRate:histogram
field count 1496
field mean 0.93181818181818
field stddev 0.25214193399731
field min 0
field max 1
field sum 1394
field sqrsum 1394
attr source packetErrorRate(packetSentToUpper)
attr title "Packet error rate, histogram"
bin	-inf	0
bin	0	102
bin	1	1394
bin	2	0
statistic TARPNetwork.node[6].wlan[0].radio bitErrorRate:histogram
field count 1496
field mean 0.93181818181818
field stddev 0.25214193399731
field min 0
field max 1
field sum 1394
field sqrsum 1394
attr source bitErrorRate(packetSentToUpper)
attr title "Bit error rate, histogram"
bin	-inf	0
bin	0	102
bin	1	1394
bin	2	0
statistic TARPNetwork.node[6].wlan[0].radio symbolErrorRate:histogram
field count 1496
field mean 0.93181818181818
field stddev 0.25214193399731
field min 0
field max 1
field sum 1394
field sqrsum 1394
attr source symbolErrorRate(packetSentToUpper)
attr title "Symbol error rate, histogram"
bin	-inf	0
bin	0	102
bin	1	1394
bin	2	0
scalar TARPNetwork.node[6].wlan[0].radio transmissionState:count 1197
attr interpolationmode sample-hold
attr source transmissionStateChanged
attr title "Radio transmission state, count"
scalar TARPNetwork.node[6].wlan[0].radio receptionState:count 3693
attr interpolationmode sample-hold
attr source receptionStateChanged
attr title "Radio reception state, count"
scalar TARPNetwork.node[6].wlan[0].radio radioMode:count 3
attr interpolationmode sample-hold
attr source radioModeChanged
attr title "Radio mode, count"
scalar TARPNetwork.node[6].generic.np nbDataPacketsReceived 0
scalar TARPNetwork.node[6].generic.np nbDataPacketsSent 0
scalar TARPNetwork.node[6].generic.np nbDataPacketsForwarded 598
scalar TARPNetwork.node[6].generic.np meanNbHops 0
scalar TARPNetwork.node[6].generic.np nbSPD 0
scalar TARPNetwork.node[6].udp packetReceived:count 0
attr interpolationmode none
attr source packetReceived
attr title "packets received, count"
scalar TARPNetwork.node[6].udp packetReceived:sum(packetBytes) 0
attr interpolationmode none
attr source packetReceived
attr title "packets received, sum(packetBytes)"
scalar TARPNetwork.node[6].udp packetSent:count 0
attr interpolationmode none
attr source packetSent
attr title "packets sent, count"
scalar TARPNetwork.node[6].udp packetSent:sum(packetBytes) 0
attr interpolationmode none
attr source packetSent
attr title "packets sent, sum(packetBytes)"
scalar TARPNetwork.node[6].udp passedUpPk:count 0
attr interpolationmode none
attr source packetSentToUpper
attr title "packets passed up, count"
scalar TARPNetwork.node[6].udp droppedPkWrongPort:count 0
attr interpolationmode none
attr source packetDropReasonIsNoPortFound(packetDropped)
attr title "packets dropped (wrong port), count"
scalar TARPNetwork.node[6].udp droppedPkBadChecksum:count 0
attr interpolationmode none
attr source packetDropReasonIsIncorrectlyReceived(packetDropped)
attr title "packets dropped (checksum error), count"
scalar TARPNetwork.node[7].lo[0].lo rcvdPkFromHl:count 0
attr interpolationmode none
attr source packetReceivedFromUpper
attr title "packets received from higher layer, count"
scalar TARPNetwork.node[7].lo[0].lo rcvdPkFromHl:sum(packetBytes) 0
attr interpolationmode none
attr source packetReceivedFromUpper
attr title "packets received from higher layer, sum(packetBytes)"
scalar TARPNetwork.node[7].lo[0].lo passedUpPk:count 0
attr interpolationmode none
attr source packetSentToUpper
attr title "packets passed to higher layer, count"
scalar TARPNetwork.node[7].lo[0].lo passedUpPk:sum(packetBytes) 0
attr interpolationmode none
attr source packetSentToUpper
attr title "packets passed to higher layer, sum(packetBytes)"
scalar TARPNetwork.node[7].wlan[0].mac.queue packetPopped:count 5
attr interpolationmode none
attr title "packet popped, count"
scalar TARPNetwork.node[7].wlan[0].mac.queue packetPopped:sum(packetBytes) 380
attr interpolationmode none
attr title "packet popped, sum(packetBytes)"
statistic TARPNetwork.node[7].wlan[0].mac.queue queueingTime:histogram
field count 5
field mean 0
field stddev 0
field min 0
field max 0
field sum 0
field sqrsum 0
attr interpolationmode none
attr source queueingTime(packetPopped)
attr title "queueing times, histogram"
attr unit s
bin	-inf	0
bin	-0.5	0
bin	-0.48	0
bin	-0.46	0
bin	-0.44	0
bin	-0.42	0
bin	-0.4	0
bin	-0.38	0
bin	-0.36	0
bin	-0.34	0
bin	-0.32	0
bin	-0.3	0
bin	-0.28	0
bin	-0.26	0
bin	-0.24	0
bin	-0.22	0
bin	-0.2	0
bin	-0.18	0
bin	-0.16	0
bin	-0.14	0
bin	-0.12	0
bin	-0.1	0
bin	-0.08	0
bin	-0.06	0
bin	-0.04	0
bin	-0.02	0
bin	0	5
bin	0.02	0
bin	0.04	0
bin	0.06	0
bin	0.08	0
bin	0.1	0
bin	0.12	0
bin	0.14	0
bin	0.16	0
bin	0.18	0
bin	0.2	0
bin	0.22	0
bin	0.24	0
bin	0.26	0
bin	0.28	0
bin	0.3	0
bin	0.32	0
bin	0.34	0
bin	0.36	0
bin	0.38	0
bin	0.4	0
bin	0.42	0
bin	0.44	0
bin	0.46	0
bin	0.48	0
bin	0.5	0
scalar TARPNetwork.node[7].wlan[0].mac.queue queueLength:max 1
attr interpolationmode sample-hold
attr source "count(packetPushed) - count(packetPopped) - count(packetRemoved) - count(packetDropped)"
attr title "queue length, max"
scalar TARPNetwork.node[7].wlan[0].mac.queue queueLength:timeavg 0
attr interpolationmode sample-hold
attr source "count(packetPushed) - count(packetPopped) - count(packetRemoved) - count(packetDropped)"
attr title "queue length, timeavg"
scalar TARPNetwork.node[7].wlan[0].mac.queue packetPushed:count 5
attr interpolationmode none
attr title "packet pushed, count"
scalar TARPNetwork.node[7].wlan[0].mac.queue packetPushed:sum(packetBytes) 380
attr interpolationmode none
attr title "packet pushed, sum(packetBytes)"
scalar TARPNetwork.node[7].wlan[0].mac.queue packetDropQueueOverflow:count 0
attr interpolationmode none
attr source packetDropReasonIsQueueOverflow(packetDropped)
attr title "packet drops: queue overflow, count"
scalar TARPNetwork.node[7].wlan[0].mac.queue packetDropQueueOverflow:sum(packetBytes) 0
attr interpolationmode none
attr source packetDropReasonIsQueueOverflow(packetDropped)
attr title "packet drops: queue overflow, sum(packetBytes)"
scalar TARPNetwork.node[7].wlan[0].mac.queue packetRemoved:count 0
attr interpolationmode none
attr title "packets removed, count"
scalar TARPNetwork.node[7].wlan[0].mac.queue packetRemoved:sum(packetBytes) 0
attr interpolationmode none
attr title "packets removed, sum(packetBytes)"
scalar TARPNetwork.node[7].wlan[0].mac rcvdPkFromLl:count 1198
attr interpolationmode none
attr source packetReceivedFromLower
attr title "packets received from lower layer, count"
scalar TARPNetwork.node[7].wlan[0].mac rcvdPkFromLl:sum(packetBytes) 110216
attr interpolationmode none
attr source packetReceivedFromLower
attr title "packets received from lower layer, sum(packetBytes)"
scalar TARPNetwork.node[7].wlan[0].mac sentDownPk:count 5
attr interpolationmode none
attr source packetSentToLower
attr title "packets sent to lower layer, count"
scalar TARPNetwork.node[7].wlan[0].mac sentDownPk:sum(packetBytes) 460
attr interpolationmode none
attr source packetSentToLower
attr title "packets sent to lower layer, sum(packetBytes)"
scalar TARPNetwork.node[7].wlan[0].mac rcvdPkFromHl:count 5
attr interpolationmode none
attr source packetReceivedFromUpper
attr title "packets received from higher layer, count"
scalar TARPNetwork.node[7].wlan[0].mac rcvdPkFromHl:sum(packetBytes) 380
attr interpolationmode none
attr source packetReceivedFromUpper
attr title "packets received from higher layer, sum(packetBytes)"
scalar TARPNetwork.node[7].wlan[0].mac passedUpPk:count 1198
attr interpolationmode none
attr source packetSentToUpper
attr title "packets passed to higher layer, count"
scalar TARPNetwork.node[7].wlan[0].mac passedUpPk:sum(packetBytes) 91048
attr interpolationmode none
attr source packetSentToUpper
attr title "packets passed to higher layer, sum(packetBytes)"
scalar TARPNetwork.node[7].wlan[0].mac packetDropIncorrectlyReceived:count 0
attr interpolationmode none
attr source packetDropReasonIsIncorrectlyReceived(packetDropped)
attr title "packet drop: incorrectly received, count"
scalar TARPNetwork.node[7].wlan[0].mac packetDropIncorrectlyReceived:sum(packetBytes) 0
attr interpolationmode none
attr source packetDropReasonIsIncorrectlyReceived(packetDropped)
attr title "packet drop: incorrectly received, sum(packetBytes)"
scalar TARPNetwork.node[7].wlan[0].mac packetDropInterfaceDown:count 0
attr interpolationmode none
attr source packetDropReasonIsInterfaceDown(packetDropped)
attr title "packet drop: interface down, count"
scalar TARPNetwork.node[7].wlan[0].mac packetDropInterfaceDown:sum(packetBytes) 0
attr interpolationmode none
attr source packetDropReasonIsInterfaceDown(packetDropped)
attr title "packet drop: interface down, sum(packetBytes)"
scalar TARPNetwork.node[7].wlan[0].mac packetDropNotAddressedToUs:count 0
attr interpolationmode none
attr source packetDropReasonIsNotAddressedToUs(packetDropped)
attr title "packet drop: not addressed to us, count"
scalar TARPNetwork.node[7].wlan[0].mac packetDropNotAddressedToUs:sum(packetBytes) 0
attr interpolationmode none
attr source packetDropReasonIsNotAddressedToUs(packetDropped)
attr title "packet drop: not addressed to us, sum(packetBytes)"
scalar TARPNetwork.node[7].wlan[0].mac linkBroken:count 0
attr interpolationmode none
attr source linkBroken
attr title "link break, count"
statistic TARPNetwork.node[7].wlan[0].radio minSnir:histogram
field count 0
field mean nan
field stddev nan
field min nan
field max nan
field sum 0
field sqrsum 0
attr source minimumSnir(packetSentToUpper)
attr title "Min SNIR, histogram"
bin	-inf	0
bin	0	0
bin	1	0
statistic TARPNetwork.node[7].wlan[0].radio packetErrorRate:histogram
field count 1198
field mean 0.010016694490818
field stddev 0.099622510843477
field min 0
field max 1
field sum 12
field sqrsum 12
attr source packetErrorRate(packetSentToUpper)
attr title "Packet error rate, histogram"
bin	-inf	0
bin	0	1186
bin	1	12
bin	2	0
statistic TARPNetwork.node[7].wlan[0].radio bitErrorRate:histogram
field count 1198
field mean 0.010016694490818
field stddev 0.099622510843477
field min 0
field max 1
field sum 12
field sqrsum 12
attr source bitErrorRate(packetSentToUpper)
attr title "Bit error rate, histogram"
bin	-inf	0
bin	0	1186
bin	1	12
bin	2	0
statistic TARPNetwork.node[7].wlan[0].radio symbolErrorRate:histogram
field count 1198
field mean 0.010016694490818
field stddev 0.099622510843477
field min 0
field max 1
field sum 12
field sqrsum 12
attr source symbolErrorRate(packetSentToUpper)
attr title "Symbol error rate, histogram"
bin	-inf	0
bin	0	1186
bin	1	12
bin	2	0
scalar TARPNetwork.node[7].wlan[0].radio transmissionState:count 11
attr interpolationmode sample-hold
attr source transmissionStateChanged
attr title "Radio transmission state, count"
scalar TARPNetwork.node[7].wlan[0].radio receptionState:count 2405
attr interpolationmode sample-hold
attr source receptionStateChanged
attr title "Radio reception state, count"
scalar TARPNetwork.node[7].wlan[0].radio radioMode:count 3
attr interpolationmode sample-hold
attr source radioModeChanged
attr title "Radio mode, count"
scalar TARPNetwork.node[7].generic.np nbDataPacketsReceived 0
scalar TARPNetwork.node[7].generic.np nbDataPacketsSent 0
scalar TARPNetwork.node[7].generic.np nbDataPacketsForwarded 5
scalar TARPNetwork.node[7].generic.np meanNbHops 0
scalar TARPNetwork.node[7].generic.np nbSPD 593
scalar TARPNetwork.node[7].udp packetReceived:count 0
attr interpolationmode none
attr source packetReceived
attr title "packets received, count"
scalar TARPNetwork.node[7].udp packetReceived:sum(packetBytes) 0
attr interpolationmode none
attr source packetReceived
attr title "packets received, sum(packetBytes)"
scalar TARPNetwork.node[7].udp packetSent:count 0
attr interpolationmode none
attr source packetSent
attr title "packets sent, count"
scalar TARPNetwork.node[7].udp packetSent:sum(packetBytes) 0
attr interpolationmode none
attr source packetSent
attr title "packets sent, sum(packetBytes)"
scalar TARPNetwork.node[7].udp passedUpPk:count 0
attr interpolationmode none
attr source packetSentToUpper
attr title "packets passed up, count"
scalar TARPNetwork.node[7].udp droppedPkWrongPort:count 0
attr interpolationmode none
attr source packetDropReasonIsNoPortFound(packetDropped)
attr title "packets dropped (wrong port), count"
scalar TARPNetwork.node[7].udp droppedPkBadChecksum:count 0
attr interpolationmode none
attr source packetDropReasonIsIncorrectlyReceived(packetDropped)
attr title "packets dropped (checksum error), count"
scalar TARPNetwork.node[8].lo[0].lo rcvdPkFromHl:count 0
attr interpolationmode none
attr source packetReceivedFromUpper
attr title "packets received from higher layer, count"
scalar TARPNetwork.node[8].lo[0].lo rcvdPkFromHl:sum(packetBytes) 0
attr interpolationmode none
attr source packetReceivedFromUpper
attr title "packets received from higher layer, sum(packetBytes)"
scalar TARPNetwork.node[8].lo[0].lo passedUpPk:count 0
attr interpolationmode none
attr source packetSentToUpper
attr title "packets passed to higher layer, count"
scalar TARPNetwork.node[8].lo[0].lo passedUpPk:sum(packetBytes) 0
attr interpolationmode none
attr source packetSentToUpper
attr title "packets passed to higher layer, sum(packetBytes)"
scalar TARPNetwork.node[8].wlan[0].mac.queue packetPopped:count 497
attr interpolationmode none
attr title "packet popped, count"
scalar TARPNetwork.node[8].wlan[0].mac.queue packetPopped:sum(packetBytes) 37772
attr interpolationmode none
attr title "packet popped, sum(packetBytes)"
[...]
scalar TARPNetwork.nodeA.wlan[0].mac.queue packetPopped:count 300
attr interpolationmode none
attr title "packet popped, count"
scalar TARPNetwork.nodeA.wlan[0].mac.queue packetPopped:sum(packetBytes) 22800
attr interpolationmode none
attr title "packet popped, sum(packetBytes)"
statistic TARPNetwork.nodeA.wlan[0].mac.queue queueingTime:histogram
field count 300
field mean 0
field stddev 0
field min 0
field max 0
field sum 0
field sqrsum 0
attr interpolationmode none
attr source queueingTime(packetPopped)
attr title "queueing times, histogram"
attr unit s
bin	-inf	0
bin	-0.5	0
bin	-0.48	0
bin	-0.46	0
bin	-0.44	0
bin	-0.42	0
bin	-0.4	0
bin	-0.38	0
bin	-0.36	0
bin	-0.34	0
bin	-0.32	0
bin	-0.3	0
bin	-0.28	0
bin	-0.26	0
bin	-0.24	0
bin	-0.22	0
bin	-0.2	0
bin	-0.18	0
bin	-0.16	0
bin	-0.14	0
bin	-0.12	0
bin	-0.1	0
bin	-0.08	0
bin	-0.06	0
bin	-0.04	0
bin	-0.02	0
bin	0	300
bin	0.02	0
bin	0.04	0
bin	0.06	0
bin	0.08	0
bin	0.1	0
bin	0.12	0
bin	0.14	0
bin	0.16	0
bin	0.18	0
bin	0.2	0
bin	0.22	0
bin	0.24	0
bin	0.26	0
bin	0.28	0
bin	0.3	0
bin	0.32	0
bin	0.34	0
bin	0.36	0
bin	0.38	0
bin	0.4	0
bin	0.42	0
bin	0.44	0
bin	0.46	0
bin	0.48	0
bin	0.5	0
scalar TARPNetwork.nodeA.wlan[0].mac.queue queueLength:max 1
attr interpolationmode sample-hold
attr source "count(packetPushed) - count(packetPopped) - count(packetRemoved) - count(packetDropped)"
attr title "queue length, max"
scalar TARPNetwork.nodeA.wlan[0].mac.queue queueLength:timeavg 0
attr interpolationmode sample-hold
attr source "count(packetPushed) - count(packetPopped) - count(packetRemoved) - count(packetDropped)"
attr title "queue length, timeavg"
scalar TARPNetwork.nodeA.wlan[0].mac.queue packetPushed:count 300
attr interpolationmode none
attr title "packet pushed, count"
scalar TARPNetwork.nodeA.wlan[0].mac.queue packetPushed:sum(packetBytes) 22800
attr interpolationmode none
attr title "packet pushed, sum(packetBytes)"
scalar TARPNetwork.nodeA.wlan[0].mac.queue packetDropQueueOverflow:count 0
attr interpolationmode none
attr source packetDropReasonIsQueueOverflow(packetDropped)
attr title "packet drops: queue overflow, count"
scalar TARPNetwork.nodeA.wlan[0].mac.queue packetDropQueueOverflow:sum(packetBytes) 0
attr interpolationmode none
attr source packetDropReasonIsQueueOverflow(packetDropped)
attr title "packet drops: queue overflow, sum(packetBytes)"
scalar TARPNetwork.nodeA.wlan[0].mac.queue packetRemoved:count 0
attr interpolationmode none
attr title "packets removed, count"
scalar TARPNetwork.nodeA.wlan[0].mac.queue packetRemoved:sum(packetBytes) 0
attr interpolationmode none
attr title "packets removed, sum(packetBytes)"
scalar TARPNetwork.nodeA.wlan[0].mac rcvdPkFromLl:count 896
attr interpolationmode none
attr source packetReceivedFromLower
attr title "packets received from lower layer, count"
scalar TARPNetwork.nodeA.wlan[0].mac rcvdPkFromLl:sum(packetBytes) 82432
attr interpolationmode none
attr source packetReceivedFromLower
attr title "packets received from lower layer, sum(packetBytes)"
scalar TARPNetwork.nodeA.wlan[0].mac sentDownPk:count 300
attr interpolationmode none
attr source packetSentToLower
attr title "packets sent to lower layer, count"
scalar TARPNetwork.nodeA.wlan[0].mac sentDownPk:sum(packetBytes) 27600
attr interpolationmode none
attr source packetSentToLower
attr title "packets sent to lower layer, sum(packetBytes)"
scalar TARPNetwork.nodeA.wlan[0].mac rcvdPkFromHl:count 300
attr interpolationmode none
attr source packetReceivedFromUpper
attr title "packets received from higher layer, count"
scalar TARPNetwork.nodeA.wlan[0].mac rcvdPkFromHl:sum(packetBytes) 22800
attr interpolationmode none
attr source packetReceivedFromUpper
attr title "packets received from higher layer, sum(packetBytes)"
scalar TARPNetwork.nodeA.wlan[0].mac passedUpPk:count 896
attr interpolationmode none
attr source packetSentToUpper
attr title "packets passed to higher layer, count"
scalar TARPNetwork.nodeA.wlan[0].mac passedUpPk:sum(packetBytes) 68096
attr interpolationmode none
attr source packetSentToUpper
attr title "packets passed to higher layer, sum(packetBytes)"
scalar TARPNetwork.nodeA.wlan[0].mac packetDropIncorrectlyReceived:count 0
attr interpolationmode none
attr source packetDropReasonIsIncorrectlyReceived(packetDropped)
attr title "packet drop: incorrectly received, count"
scalar TARPNetwork.nodeA.wlan[0].mac packetDropIncorrectlyReceived:sum(packetBytes) 0
attr interpolationmode none
attr source packetDropReasonIsIncorrectlyReceived(packetDropped)
attr title "packet drop: incorrectly received, sum(packetBytes)"
scalar TARPNetwork.nodeA.wlan[0].mac packetDropInterfaceDown:count 0
attr interpolationmode none
attr source packetDropReasonIsInterfaceDown(packetDropped)
attr title "packet drop: interface down, count"
scalar TARPNetwork.nodeA.wlan[0].mac packetDropInterfaceDown:sum(packetBytes) 0
attr interpolationmode none
attr source packetDropReasonIsInterfaceDown(packetDropped)
attr title "packet drop: interface down, sum(packetBytes)"
scalar TARPNetwork.nodeA.wlan[0].mac packetDropNotAddressedToUs:count 0
attr interpolationmode none
attr source packetDropReasonIsNotAddressedToUs(packetDropped)
attr title "packet drop: not addressed to us, count"
scalar TARPNetwork.nodeA.wlan[0].mac packetDropNotAddressedToUs:sum(packetBytes) 0
attr interpolationmode none
attr source packetDropReasonIsNotAddressedToUs(packetDropped)
attr title "packet drop: not addressed to us, sum(packetBytes)"
scalar TARPNetwork.nodeA.wlan[0].mac linkBroken:count 0
attr interpolationmode none
attr source linkBroken
attr title "link break, count"
statistic TARPNetwork.nodeA.wlan[0].radio minSnir:histogram
field count 0
field mean nan
field stddev nan
field min nan
field max nan
field sum 0
field sqrsum 0
attr source minimumSnir(packetSentToUpper)
attr title "Min SNIR, histogram"
bin	-inf	0
bin	0	0
bin	1	0
statistic TARPNetwork.nodeA.wlan[0].radio packetErrorRate:histogram
field count 896
field mean 1
field stddev 0
field min 1
field max 1
field sum 896
field sqrsum 896
attr source packetErrorRate(packetSentToUpper)
attr title "Packet error rate, histogram"
bin	-inf	0
bin	0	0
bin	1	896
bin	2	0
statistic TARPNetwork.nodeA.wlan[0].radio bitErrorRate:histogram
field count 896
field mean 1
field stddev 0
field min 1
field max 1
field sum 896
field sqrsum 896
attr source bitErrorRate(packetSentToUpper)
attr title "Bit error rate, histogram"
bin	-inf	0
bin	0	0
bin	1	896
bin	2	0
statistic TARPNetwork.nodeA.wlan[0].radio symbolErrorRate:histogram
field count 896
field mean 1
field stddev 0
field min 1
field max 1
field sum 896
field sqrsum 896
attr source symbolErrorRate(packetSentToUpper)
attr title "Symbol error rate, histogram"
bin	-inf	0
bin	0	0
bin	1	896
bin	2	0
scalar TARPNetwork.nodeA.wlan[0].radio transmissionState:count 600
attr interpolationmode sample-hold
attr source transmissionStateChanged
attr title "Radio transmission state, count"
scalar TARPNetwork.nodeA.wlan[0].radio receptionState:count 2689
attr interpolationmode sample-hold
attr source receptionStateChanged
attr title "Radio reception state, count"
scalar TARPNetwork.nodeA.wlan[0].radio radioMode:count 3
attr interpolationmode sample-hold
attr source radioModeChanged
attr title "Radio mode, count"
scalar TARPNetwork.nodeA.generic.np nbDataPacketsReceived 299
scalar TARPNetwork.nodeA.generic.np nbDataPacketsSent 300
scalar TARPNetwork.nodeA.generic.np nbDataPacketsForwarded 0
scalar TARPNetwork.nodeA.generic.np meanNbHops 9.0033444816054
scalar TARPNetwork.nodeA.generic.np nbSPD 0
scalar TARPNetwork.nodeA.udp packetReceived:count 0
attr interpolationmode none
attr source packetReceived
attr title "packets received, count"
scalar TARPNetwork.nodeA.udp packetReceived:sum(packetBytes) 0
attr interpolationmode none
attr source packetReceived
attr title "packets received, sum(packetBytes)"
scalar TARPNetwork.nodeA.udp packetSent:count 0
attr interpolationmode none
attr source packetSent
attr title "packets sent, count"
scalar TARPNetwork.nodeA.udp packetSent:sum(packetBytes) 0
attr interpolationmode none
attr source packetSent
attr title "packets sent, sum(packetBytes)"
scalar TARPNetwork.nodeA.udp passedUpPk:count 0
attr interpolationmode none
attr source packetSentToUpper
attr title "packets passed up, count"
scalar TARPNetwork.nodeA.udp droppedPkWrongPort:count 0
attr interpolationmode none
attr source packetDropReasonIsNoPortFound(packetDropped)
attr title "packets dropped (wrong port), count"
scalar TARPNetwork.nodeA.udp droppedPkBadChecksum:count 0
attr interpolationmode none
attr source packetDropReasonIsIncorrectlyReceived(packetDropped)
attr title "packets dropped (checksum error), count"
scalar TARPNetwork.nodeA.app[0] "Pings sent" 300
scalar TARPNetwork.nodeA.app[0] "ping loss rate (%)" 0.33333333333333
scalar TARPNetwork.nodeA.app[0] "ping out-of-order rate (%)" 0
scalar TARPNetwork.nodeA.app[0] pingRxSeq:count 299
attr interpolationmode none
attr title "ping rx seq, count"
scalar TARPNetwork.nodeA.app[0] pingTxSeq:count 300
attr interpolationmode none
attr title "ping tx seq, count"
scalar TARPNetwork.nodeA.app[0] numOutOfOrderArrivals:last nan
attr interpolationmode none
attr title "ping out-of-order arrivals, last"
scalar TARPNetwork.nodeA.app[0] numLost:last nan
attr interpolationmode none
attr title "pings lost, last"
statistic TARPNetwork.nodeA.app[0] rtt:histogram
field count 299
field mean 0.007493803994893
field stddev 2.4079917175674e-005
field min 0.007492384164
field max 0.007908791587
field sum 2.240647394473
field sqrsum 0.016791145188887
attr interpolationmode none
attr title "ping round-trip time, histogram"
attr unit s
bin	-inf	0
bin	0.00738	0
bin	0.00739	0
bin	0.0074	0
bin	0.00741	0
bin	0.00742	0
bin	0.00743	0
bin	0.00744	0
bin	0.00745	0
bin	0.00746	0
bin	0.00747	0
bin	0.00748	0
bin	0.00749	298
bin	0.0075	0
bin	0.00751	0
bin	0.00752	0
bin	0.00753	0
bin	0.00754	0
bin	0.00755	0
bin	0.00756	0
bin	0.00757	0
bin	0.00758	0
bin	0.00759	0
bin	0.0076	0
bin	0.00761	0
bin	0.00762	0
bin	0.00763	0
bin	0.00764	0
bin	0.00765	0
bin	0.00766	0
bin	0.00767	0
bin	0.00768	0
bin	0.00769	0
bin	0.0077	0
bin	0.00771	0
bin	0.00772	0
bin	0.00773	0
bin	0.00774	0
bin	0.00775	0
bin	0.00776	0
bin	0.00777	0
bin	0.00778	0
bin	0.00779	0
bin	0.0078	0
bin	0.00781	0
bin	0.00782	0
bin	0.00783	0
bin	0.00784	0
bin	0.00785	0
bin	0.00786	0
bin	0.00787	0
bin	0.00788	0
bin	0.00789	0
bin	0.0079	1
bin	0.00791	0
bin	0.00792	0
bin	0.00793	0
bin	0.00794	0
bin	0.00795	0
bin	0.00796	0
bin	0.00797	0
bin	0.00798	0
bin	0.00799	0
bin	0.008	0
bin	0.00801	0
bin	0.00802	0
scalar TARPNetwork.nodeB.lo[0].lo rcvdPkFromHl:count 0
attr interpolationmode none
attr source packetReceivedFromUpper
attr title "packets received from higher layer, count"
scalar TARPNetwork.nodeB.lo[0].lo rcvdPkFromHl:sum(packetBytes) 0
attr interpolationmode none
attr source packetReceivedFromUpper
attr title "packets received from higher layer, sum(packetBytes)"
scalar TARPNetwork.nodeB.lo[0].lo passedUpPk:count 0
attr interpolationmode none
attr source packetSentToUpper
attr title "packets passed to higher layer, count"
scalar TARPNetwork.nodeB.lo[0].lo passedUpPk:sum(packetBytes) 0
attr interpolationmode none
attr source packetSentToUpper
attr title "packets passed to higher layer, sum(packetBytes)"
scalar TARPNetwork.nodeB.wlan[0].mac.queue packetPopped:count 299
attr interpolationmode none
attr title "packet popped, count"
scalar TARPNetwork.nodeB.wlan[0].mac.queue packetPopped:sum(packetBytes) 22724
attr interpolationmode none
attr title "packet popped, sum(packetBytes)"
statistic TARPNetwork.nodeB.wlan[0].mac.queue queueingTime:histogram
field count 299
field mean 0
field stddev 0
field min 0
field max 0
field sum 0
field sqrsum 0
attr interpolationmode none
attr source queueingTime(packetPopped)
attr title "queueing times, histogram"
attr unit s
bin	-inf	0
bin	-0.5	0
bin	-0.48	0
bin	-0.46	0
bin	-0.44	0
bin	-0.42	0
bin	-0.4	0
bin	-0.38	0
bin	-0.36	0
bin	-0.34	0
bin	-0.32	0
bin	-0.3	0
bin	-0.28	0
bin	-0.26	0
bin	-0.24	0
bin	-0.22	0
bin	-0.2	0
bin	-0.18	0
bin	-0.16	0
bin	-0.14	0
bin	-0.12	0
bin	-0.1	0
bin	-0.08	0
bin	-0.06	0
bin	-0.04	0
bin	-0.02	0
bin	0	299
bin	0.02	0
bin	0.04	0
bin	0.06	0
bin	0.08	0
bin	0.1	0
bin	0.12	0
bin	0.14	0
bin	0.16	0
bin	0.18	0
bin	0.2	0
bin	0.22	0
bin	0.24	0
bin	0.26	0
bin	0.28	0
bin	0.3	0
bin	0.32	0
bin	0.34	0
bin	0.36	0
bin	0.38	0
bin	0.4	0
bin	0.42	0
bin	0.44	0
bin	0.46	0
bin	0.48	0
bin	0.5	0
scalar TARPNetwork.nodeB.wlan[0].mac.queue queueLength:max 1
attr interpolationmode sample-hold
attr source "count(packetPushed) - count(packetPopped) - count(packetRemoved) - count(packetDropped)"
attr title "queue length, max"
scalar TARPNetwork.nodeB.wlan[0].mac.queue queueLength:timeavg 0
attr interpolationmode sample-hold
attr source "count(packetPushed) - count(packetPopped) - count(packetRemoved) - count(packetDropped)"
attr title "queue length, timeavg"
scalar TARPNetwork.nodeB.wlan[0].mac.queue packetPushed:count 299
attr interpolationmode none
attr title "packet pushed, count"
scalar TARPNetwork.nodeB.wlan[0].mac.queue packetPushed:sum(packetBytes) 22724
attr interpolationmode none
attr title "packet pushed, sum(packetBytes)"
scalar TARPNetwork.nodeB.wlan[0].mac.queue packetDropQueueOverflow:count 0
attr interpolationmode none
attr source packetDropReasonIsQueueOverflow(packetDropped)
attr title "packet drops: queue overflow, count"
scalar TARPNetwork.nodeB.wlan[0].mac.queue packetDropQueueOverflow:sum(packetBytes) 0
attr interpolationmode none
attr source packetDropReasonIsQueueOverflow(packetDropped)
attr title "packet drops: queue overflow, sum(packetBytes)"
scalar TARPNetwork.nodeB.wlan[0].mac.queue packetRemoved:count 0
attr interpolationmode none
attr title "packets removed, count"
scalar TARPNetwork.nodeB.wlan[0].mac.queue packetRemoved:sum(packetBytes) 0
attr interpolationmode none
attr title "packets removed, sum(packetBytes)"
scalar TARPNetwork.nodeB.wlan[0].mac rcvdPkFromLl:count 1001
attr interpolationmode none
attr source packetReceivedFromLower
attr title "packets received from lower layer, count"
scalar TARPNetwork.nodeB.wlan[0].mac rcvdPkFromLl:sum(packetBytes) 92092
attr interpolationmode none
attr source packetReceivedFromLower
attr title "packets received from lower layer, sum(packetBytes)"
scalar TARPNetwork.nodeB.wlan[0].mac sentDownPk:count 299
attr interpolationmode none
attr source packetSentToLower
attr title "packets sent to lower layer, count"
scalar TARPNetwork.nodeB.wlan[0].mac sentDownPk:sum(packetBytes) 27508
attr interpolationmode none
attr source packetSentToLower
attr title "packets sent to lower layer, sum(packetBytes)"
scalar TARPNetwork.nodeB.wlan[0].mac rcvdPkFromHl:count 299
attr interpolationmode none
attr source packetReceivedFromUpper
attr title "packets received from higher layer, count"
scalar TARPNetwork.nodeB.wlan[0].mac rcvdPkFromHl:sum(packetBytes) 22724
attr interpolationmode none
attr source packetReceivedFromUpper
attr title "packets received from higher layer, sum(packetBytes)"
scalar TARPNetwork.nodeB.wlan[0].mac passedUpPk:count 1001
attr interpolationmode none
attr source packetSentToUpper
attr title "packets passed to higher layer, count"
scalar TARPNetwork.nodeB.wlan[0].mac passedUpPk:sum(packetBytes) 76076
attr interpolationmode none
attr source packetSentToUpper
attr title "packets passed to higher layer, sum(packetBytes)"
scalar TARPNetwork.nodeB.wlan[0].mac packetDropIncorrectlyReceived:count 0
attr interpolationmode none
attr source packetDropReasonIsIncorrectlyReceived(packetDropped)
attr title "packet drop: incorrectly received, count"
scalar TARPNetwork.nodeB.wlan[0].mac packetDropIncorrectlyReceived:sum(packetBytes) 0
attr interpolationmode none
attr source packetDropReasonIsIncorrectlyReceived(packetDropped)
attr title "packet drop: incorrectly received, sum(packetBytes)"
scalar TARPNetwork.nodeB.wlan[0].mac packetDropInterfaceDown:count 0
attr interpolationmode none
attr source packetDropReasonIsInterfaceDown(packetDropped)
attr title "packet drop: interface down, count"
scalar TARPNetwork.nodeB.wlan[0].mac packetDropInterfaceDown:sum(packetBytes) 0
attr interpolationmode none
attr source packetDropReasonIsInterfaceDown(packetDropped)
attr title "packet drop: interface down, sum(packetBytes)"
scalar TARPNetwork.nodeB.wlan[0].mac packetDropNotAddressedToUs:count 0
attr interpolationmode none
attr source packetDropReasonIsNotAddressedToUs(packetDropped)
attr title "packet drop: not addressed to us, count"
scalar TARPNetwork.nodeB.wlan[0].mac packetDropNotAddressedToUs:sum(packetBytes) 0
attr interpolationmode none
attr source packetDropReasonIsNotAddressedToUs(packetDropped)
attr title "packet drop: not addressed to us, sum(packetBytes)"
scalar TARPNetwork.nodeB.wlan[0].mac linkBroken:count 0
attr interpolationmode none
attr source linkBroken
attr title "link break, count"
statistic TARPNetwork.nodeB.wlan[0].radio minSnir:histogram
field count 0
field mean nan
field stddev nan
field min nan
field max nan
field sum 0
field sqrsum 0
attr source minimumSnir(packetSentToUpper)
attr title "Min SNIR, histogram"
bin	-inf	0
bin	0	0
bin	1	0
statistic TARPNetwork.nodeB.wlan[0].radio packetErrorRate:histogram
field count 1001
field mean 0.9000999000999
field stddev 0.30001664955464
field min 0
field max 1
field sum 901
field sqrsum 901
attr source packetErrorRate(packetSentToUpper)
attr title "Packet error rate, histogram"
bin	-inf	0
bin	0	100
bin	1	901
bin	2	0
statistic TARPNetwork.nodeB.wlan[0].radio bitErrorRate:histogram
field count 1001
field mean 0.9000999000999
field stddev 0.30001664955464
field min 0
field max 1
field sum 901
field sqrsum 901
attr source bitErrorRate(packetSentToUpper)
attr title "Bit error rate, histogram"
bin	-inf	0
bin	0	100
bin	1	901
bin	2	0
statistic TARPNetwork.nodeB.wlan[0].radio symbolErrorRate:histogram
field count 1001
field mean 0.9000999000999
field stddev 0.30001664955464
field min 0
field max 1
field sum 901
field sqrsum 901
attr source symbolErrorRate(packetSentToUpper)
attr title "Symbol error rate, histogram"
bin	-inf	0
bin	0	100
bin	1	901
bin	2	0
scalar TARPNetwork.nodeB.wlan[0].radio transmissionState:count 599
attr interpolationmode sample-hold
attr source transmissionStateChanged
attr title "Radio transmission state, count"
scalar TARPNetwork.nodeB.wlan[0].radio receptionState:count 2603
attr interpolationmode sample-hold
attr source receptionStateChanged
attr title "Radio reception state, count"
scalar TARPNetwork.nodeB.wlan[0].radio radioMode:count 3
attr interpolationmode sample-hold
attr source radioModeChanged
attr title "Radio mode, count"
scalar TARPNetwork.nodeB.generic.np nbDataPacketsReceived 299
scalar TARPNetwork.nodeB.generic.np nbDataPacketsSent 299
scalar TARPNetwork.nodeB.generic.np nbDataPacketsForwarded 0
scalar TARPNetwork.nodeB.generic.np meanNbHops 9
scalar TARPNetwork.nodeB.generic.np nbSPD 0
scalar TARPNetwork.nodeB.udp packetReceived:count 0
attr interpolationmode none
attr source packetReceived
attr title "packets received, count"
scalar TARPNetwork.nodeB.udp packetReceived:sum(packetBytes) 0
attr interpolationmode none
attr source packetReceived
attr title "packets received, sum(packetBytes)"
scalar TARPNetwork.nodeB.udp packetSent:count 0
attr interpolationmode none
attr source packetSent
attr title "packets sent, count"
scalar TARPNetwork.nodeB.udp packetSent:sum(packetBytes) 0
attr interpolationmode none
attr source packetSent
attr title "packets sent, sum(packetBytes)"
scalar TARPNetwork.nodeB.udp passedUpPk:count 0
attr interpolationmode none
attr source packetSentToUpper
attr title "packets passed up, count"
scalar TARPNetwork.nodeB.udp droppedPkWrongPort:count 0
attr interpolationmode none
attr source packetDropReasonIsNoPortFound(packetDropped)
attr title "packets dropped (wrong port), count"
scalar TARPNetwork.nodeB.udp droppedPkBadChecksum:count 0
attr interpolationmode none
attr source packetDropReasonIsIncorrectlyReceived(packetDropped)
attr title "packets dropped (checksum error), count"

