file 4651050 1631290649                                         
version 2
run StaticGrid-0-20210910-21:46:38-24936
attr configname StaticGrid
attr datetime 20210910-21:46:38
attr experiment StaticGrid
attr inifile omnetpp.ini
attr iterationvars ""
attr iterationvarsf ""
attr measurement ""
attr network TARPNetwork
attr processid 24936
attr repetition 0
attr replication #0
attr resultdir results
attr runnumber 0
attr seedset 0
param *.*node[*].mobility.typename "\"StaticGridMobility\""
param *.*node[*].mobility.numHosts 40
param **.node[*].mobility.typename "\"StationaryMobility\""
param **.mobility.constraintAreaMinZ 0m
param **.mobility.constraintAreaMaxZ 0m
param **.mobility.constraintAreaMinX 0m
param **.mobility.constraintAreaMinY 0m
param **.mobility.constraintAreaMaxX 500m
param **.mobility.constraintAreaMaxY 500m
param **.numNodes 40
param *.node*.typename "\"Node\""
param *.nodeA.numApps 1
param *.nodeA.app[0].typename "\"PingApp\""
param *.nodeA.app[0].destAddr "\"nodeB\""
param *.nodeA.app[0].startTime 1s
param **.wlan[*].typename "\"AckingWirelessInterface\""
param **.bitrate 2Mbps
param **.wlan[*].radio.transmitter.communicationRange 100m
param **.wlan[*].radio.transmitter.interferenceRange 0m
param **.wlan[*].radio.transmitter.detectionRange 0m
param **.wlan[*].radio.receiver.ignoreInterference true
param *.nodeA.wlan[0].radio.displayCommunicationRange true
param *.nodeB.wlan[0].radio.displayCommunicationRange true
param *.visualizer.dataLinkVisualizer.displayLinks true
param *.visualizer.networkRouteVisualizer.displayRoutes true
param *.visualizer.*LinkVisualizer.lineShift 0
param *.visualizer.networkRouteVisualizer.lineShift 0
param *.visualizer.networkRouteVisualizer.packetFilter "\"TARP*\""
param **.hasIpv4 false
param **.hasIpv6 false
param **.hasGn true
param **.forwarding true
param **.generic.typename "\"SimpleNetworkLayer\""
param **.generic.np.typename "\"TarpF\""
param **.app[*].networkProtocol "\"tarpf\""

vector 0 TARPNetwork.node[0].wlan[0].radio radioMode:vector ETV
attr interpolationmode sample-hold
attr source radioModeChanged
attr title "Radio mode, vector"
vector 1 TARPNetwork.node[1].wlan[0].radio radioMode:vector ETV
attr interpolationmode sample-hold
attr source radioModeChanged
attr title "Radio mode, vector"
vector 2 TARPNetwork.node[2].wlan[0].radio radioMode:vector ETV
attr interpolationmode sample-hold
attr source radioModeChanged
attr title "Radio mode, vector"
vector 3 TARPNetwork.node[3].wlan[0].radio radioMode:vector ETV
attr interpolationmode sample-hold
attr source radioModeChanged
attr title "Radio mode, vector"
vector 4 TARPNetwork.node[4].wlan[0].radio radioMode:vector ETV
attr interpolationmode sample-hold
attr source radioModeChanged
attr title "Radio mode, vector"
vector 5 TARPNetwork.node[5].wlan[0].radio radioMode:vector ETV
attr interpolationmode sample-hold
attr source radioModeChanged
attr title "Radio mode, vector"
vector 6 TARPNetwork.node[6].wlan[0].radio radioMode:vector ETV
attr interpolationmode sample-hold
attr source radioModeChanged
attr title "Radio mode, vector"
vector 7 TARPNetwork.node[7].wlan[0].radio radioMode:vector ETV
attr interpolationmode sample-hold
attr source radioModeChanged
attr title "Radio mode, vector"
vector 8 TARPNetwork.node[8].wlan[0].radio radioMode:vector ETV
attr interpolationmode sample-hold
attr source radioModeChanged
attr title "Radio mode, vector"
vector 9 TARPNetwork.node[9].wlan[0].radio radioMode:vector ETV
attr interpolationmode sample-hold
attr source radioModeChanged
attr title "Radio mode, vector"
vector 10 TARPNetwork.node[10].wlan[0].radio radioMode:vector ETV
attr interpolationmode sample-hold
attr source radioModeChanged
attr title "Radio mode, vector"
vector 11 TARPNetwork.node[11].wlan[0].radio radioMode:vector ETV
attr interpolationmode sample-hold
attr source radioModeChanged
attr title "Radio mode, vector"
vector 12 TARPNetwork.node[12].wlan[0].radio radioMode:vector ETV
attr interpolationmode sample-hold
attr source radioModeChanged
attr title "Radio mode, vector"
vector 13 TARPNetwork.node[13].wlan[0].radio radioMode:vector ETV
attr interpolationmode sample-hold
attr source radioModeChanged
attr title "Radio mode, vector"
vector 14 TARPNetwork.node[14].wlan[0].radio radioMode:vector ETV
attr interpolationmode sample-hold
attr source radioModeChanged
attr title "Radio mode, vector"
vector 15 TARPNetwork.node[15].wlan[0].radio radioMode:vector ETV
attr interpolationmode sample-hold
attr source radioModeChanged
attr title "Radio mode, vector"
vector 16 TARPNetwork.node[16].wlan[0].radio radioMode:vector ETV
attr interpolationmode sample-hold
attr source radioModeChanged
attr title "Radio mode, vector"
vector 17 TARPNetwork.node[17].wlan[0].radio radioMode:vector ETV
attr interpolationmode sample-hold
attr source radioModeChanged
attr title "Radio mode, vector"
vector 18 TARPNetwork.node[18].wlan[0].radio radioMode:vector ETV
attr interpolationmode sample-hold
attr source radioModeChanged
attr title "Radio mode, vector"
vector 19 TARPNetwork.node[19].wlan[0].radio radioMode:vector ETV
attr interpolationmode sample-hold
attr source radioModeChanged
attr title "Radio mode, vector"
vector 20 TARPNetwork.node[20].wlan[0].radio radioMode:vector ETV
attr interpolationmode sample-hold
attr source radioModeChanged
attr title "Radio mode, vector"
vector 21 TARPNetwork.node[21].wlan[0].radio radioMode:vector ETV
attr interpolationmode sample-hold
attr source radioModeChanged
attr title "Radio mode, vector"
vector 22 TARPNetwork.node[22].wlan[0].radio radioMode:vector ETV
attr interpolationmode sample-hold
attr source radioModeChanged
attr title "Radio mode, vector"
vector 23 TARPNetwork.node[23].wlan[0].radio radioMode:vector ETV
attr interpolationmode sample-hold
attr source radioModeChanged
attr title "Radio mode, vector"
vector 24 TARPNetwork.node[24].wlan[0].radio radioMode:vector ETV
attr interpolationmode sample-hold
attr source radioModeChanged
attr title "Radio mode, vector"
vector 25 TARPNetwork.node[25].wlan[0].radio radioMode:vector ETV
attr interpolationmode sample-hold
attr source radioModeChanged
attr title "Radio mode, vector"
vector 26 TARPNetwork.node[26].wlan[0].radio radioMode:vector ETV
attr interpolationmode sample-hold
attr source radioModeChanged
attr title "Radio mode, vector"
vector 27 TARPNetwork.node[27].wlan[0].radio radioMode:vector ETV
attr interpolationmode sample-hold
attr source radioModeChanged
attr title "Radio mode, vector"
vector 28 TARPNetwork.node[28].wlan[0].radio radioMode:vector ETV
attr interpolationmode sample-hold
attr source radioModeChanged
attr title "Radio mode, vector"
vector 29 TARPNetwork.node[29].wlan[0].radio radioMode:vector ETV
attr interpolationmode sample-hold
attr source radioModeChanged
attr title "Radio mode, vector"
vector 30 TARPNetwork.node[30].wlan[0].radio radioMode:vector ETV
attr interpolationmode sample-hold
attr source radioModeChanged
attr title "Radio mode, vector"
vector 31 TARPNetwork.node[31].wlan[0].radio radioMode:vector ETV
attr interpolationmode sample-hold
attr source radioModeChanged
attr title "Radio mode, vector"
vector 32 TARPNetwork.node[32].wlan[0].radio radioMode:vector ETV
attr interpolationmode sample-hold
attr source radioModeChanged
attr title "Radio mode, vector"
vector 33 TARPNetwork.node[33].wlan[0].radio radioMode:vector ETV
attr interpolationmode sample-hold
attr source radioModeChanged
attr title "Radio mode, vector"
vector 34 TARPNetwork.node[34].wlan[0].radio radioMode:vector ETV
attr interpolationmode sample-hold
attr source radioModeChanged
attr title "Radio mode, vector"
vector 35 TARPNetwork.node[35].wlan[0].radio radioMode:vector ETV
attr interpolationmode sample-hold
attr source radioModeChanged
attr title "Radio mode, vector"
vector 36 TARPNetwork.node[36].wlan[0].radio radioMode:vector ETV
attr interpolationmode sample-hold
attr source radioModeChanged
attr title "Radio mode, vector"
vector 37 TARPNetwork.node[37].wlan[0].radio radioMode:vector ETV
attr interpolationmode sample-hold
attr source radioModeChanged
attr title "Radio mode, vector"
vector 38 TARPNetwork.node[38].wlan[0].radio radioMode:vector ETV
attr interpolationmode sample-hold
attr source radioModeChanged
attr title "Radio mode, vector"
vector 39 TARPNetwork.node[39].wlan[0].radio radioMode:vector ETV
attr interpolationmode sample-hold
attr source radioModeChanged
attr title "Radio mode, vector"
vector 40 TARPNetwork.nodeA.wlan[0].radio radioMode:vector ETV
attr interpolationmode sample-hold
attr source radioModeChanged
attr title "Radio mode, vector"
vector 41 TARPNetwork.nodeB.wlan[0].radio radioMode:vector ETV
attr interpolationmode sample-hold
attr source radioModeChanged
attr title "Radio mode, vector"
vector 42 TARPNetwork.node[0].wlan[0].radio receptionState:vector ETV
attr interpolationmode sample-hold
attr source receptionStateChanged
attr title "Radio reception state, vector"
vector 43 TARPNetwork.node[0].wlan[0].radio transmissionState:vector ETV
attr interpolationmode sample-hold
attr source transmissionStateChanged
attr title "Radio transmission state, vector"
vector 44 TARPNetwork.node[1].wlan[0].radio receptionState:vector ETV
attr interpolationmode sample-hold
attr source receptionStateChanged
attr title "Radio reception state, vector"
vector 45 TARPNetwork.node[1].wlan[0].radio transmissionState:vector ETV
attr interpolationmode sample-hold
attr source transmissionStateChanged
attr title "Radio transmission state, vector"
vector 46 TARPNetwork.node[2].wlan[0].radio receptionState:vector ETV
attr interpolationmode sample-hold
attr source receptionStateChanged
attr title "Radio reception state, vector"
vector 47 TARPNetwork.node[2].wlan[0].radio transmissionState:vector ETV
attr interpolationmode sample-hold
attr source transmissionStateChanged
attr title "Radio transmission state, vector"
vector 48 TARPNetwork.node[3].wlan[0].radio receptionState:vector ETV
attr interpolationmode sample-hold
attr source receptionStateChanged
attr title "Radio reception state, vector"
vector 49 TARPNetwork.node[3].wlan[0].radio transmissionState:vector ETV
attr interpolationmode sample-hold
attr source transmissionStateChanged
attr title "Radio transmission state, vector"
vector 50 TARPNetwork.node[4].wlan[0].radio receptionState:vector ETV
attr interpolationmode sample-hold
attr source receptionStateChanged
attr title "Radio reception state, vector"
vector 51 TARPNetwork.node[4].wlan[0].radio transmissionState:vector ETV
attr interpolationmode sample-hold
attr source transmissionStateChanged
attr title "Radio transmission state, vector"
vector 52 TARPNetwork.node[5].wlan[0].radio receptionState:vector ETV
attr interpolationmode sample-hold
attr source receptionStateChanged
attr title "Radio reception state, vector"
vector 53 TARPNetwork.node[5].wlan[0].radio transmissionState:vector ETV
attr interpolationmode sample-hold
attr source transmissionStateChanged
attr title "Radio transmission state, vector"
vector 54 TARPNetwork.node[6].wlan[0].radio receptionState:vector ETV
attr interpolationmode sample-hold
attr source receptionStateChanged
attr title "Radio reception state, vector"
vector 55 TARPNetwork.node[6].wlan[0].radio transmissionState:vector ETV
attr interpolationmode sample-hold
attr source transmissionStateChanged
attr title "Radio transmission state, vector"
vector 56 TARPNetwork.node[7].wlan[0].radio receptionState:vector ETV
attr interpolationmode sample-hold
attr source receptionStateChanged
attr title "Radio reception state, vector"
vector 57 TARPNetwork.node[7].wlan[0].radio transmissionState:vector ETV
attr interpolationmode sample-hold
attr source transmissionStateChanged
attr title "Radio transmission state, vector"
vector 58 TARPNetwork.node[8].wlan[0].radio receptionState:vector ETV
attr interpolationmode sample-hold
attr source receptionStateChanged
attr title "Radio reception state, vector"
vector 59 TARPNetwork.node[8].wlan[0].radio transmissionState:vector ETV
attr interpolationmode sample-hold
attr source transmissionStateChanged
attr title "Radio transmission state, vector"
vector 60 TARPNetwork.node[9].wlan[0].radio receptionState:vector ETV
attr interpolationmode sample-hold
attr source receptionStateChanged
attr title "Radio reception state, vector"
vector 61 TARPNetwork.node[9].wlan[0].radio transmissionState:vector ETV
attr interpolationmode sample-hold
attr source transmissionStateChanged
attr title "Radio transmission state, vector"
vector 62 TARPNetwork.node[10].wlan[0].radio receptionState:vector ETV
attr interpolationmode sample-hold
attr source receptionStateChanged
attr title "Radio reception state, vector"
vector 63 TARPNetwork.node[10].wlan[0].radio transmissionState:vector ETV
attr interpolationmode sample-hold
attr source transmissionStateChanged
attr title "Radio transmission state, vector"
vector 64 TARPNetwork.node[11].wlan[0].radio receptionState:vector ETV
attr interpolationmode sample-hold
attr source receptionStateChanged
attr title "Radio reception state, vector"
vector 65 TARPNetwork.node[11].wlan[0].radio transmissionState:vector ETV
attr interpolationmode sample-hold
attr source transmissionStateChanged
attr title "Radio transmission state, vector"
vector 66 TARPNetwork.node[12].wlan[0].radio receptionState:vector ETV
attr interpolationmode sample-hold
attr source receptionStateChanged
attr title "Radio reception state, vector"
vector 67 TARPNetwork.node[12].wlan[0].radio transmissionState:vector ETV
attr interpolationmode sample-hold
attr source transmissionStateChanged
attr title "Radio transmission state, vector"
vector 68 TARPNetwork.node[13].wlan[0].radio receptionState:vector ETV
attr interpolationmode sample-hold
attr source receptionStateChanged
attr title "Radio reception state, vector"
vector 69 TARPNetwork.node[13].wlan[0].radio transmissionState:vector ETV
attr interpolationmode sample-hold
attr source transmissionStateChanged
attr title "Radio transmission state, vector"
vector 70 TARPNetwork.node[14].wlan[0].radio receptionState:vector ETV
attr interpolationmode sample-hold
attr source receptionStateChanged
attr title "Radio reception state, vector"
vector 71 TARPNetwork.node[14].wlan[0].radio transmissionState:vector ETV
attr interpolationmode sample-hold
attr source transmissionStateChanged
attr title "Radio transmission state, vector"
vector 72 TARPNetwork.node[15].wlan[0].radio receptionState:vector ETV
attr interpolationmode sample-hold
attr source receptionStateChanged
attr title "Radio reception state, vector"
vector 73 TARPNetwork.node[15].wlan[0].radio transmissionState:vector ETV
attr interpolationmode sample-hold
attr source transmissionStateChanged
attr title "Radio transmission state, vector"
vector 74 TARPNetwork.node[16].wlan[0].radio receptionState:vector ETV
attr interpolationmode sample-hold
attr source receptionStateChanged
attr title "Radio reception state, vector"
vector 75 TARPNetwork.node[16].wlan[0].radio transmissionState:vector ETV
attr interpolationmode sample-hold
attr source transmissionStateChanged
attr title "Radio transmission state, vector"
vector 76 TARPNetwork.node[17].wlan[0].radio receptionState:vector ETV
attr interpolationmode sample-hold
attr source receptionStateChanged
attr title "Radio reception state, vector"
vector 77 TARPNetwork.node[17].wlan[0].radio transmissionState:vector ETV
attr interpolationmode sample-hold
attr source transmissionStateChanged
attr title "Radio transmission state, vector"
vector 78 TARPNetwork.node[18].wlan[0].radio receptionState:vector ETV
attr interpolationmode sample-hold
attr source receptionStateChanged
attr title "Radio reception state, vector"
vector 79 TARPNetwork.node[18].wlan[0].radio transmissionState:vector ETV
attr interpolationmode sample-hold
attr source transmissionStateChanged
attr title "Radio transmission state, vector"
vector 80 TARPNetwork.node[19].wlan[0].radio receptionState:vector ETV
attr interpolationmode sample-hold
attr source receptionStateChanged
attr title "Radio reception state, vector"
vector 81 TARPNetwork.node[19].wlan[0].radio transmissionState:vector ETV
attr interpolationmode sample-hold
attr source transmissionStateChanged
attr title "Radio transmission state, vector"
vector 82 TARPNetwork.node[20].wlan[0].radio receptionState:vector ETV
attr interpolationmode sample-hold
attr source receptionStateChanged
attr title "Radio reception state, vector"
vector 83 TARPNetwork.node[20].wlan[0].radio transmissionState:vector ETV
attr interpolationmode sample-hold
attr source transmissionStateChanged
attr title "Radio transmission state, vector"
vector 84 TARPNetwork.node[21].wlan[0].radio receptionState:vector ETV
attr interpolationmode sample-hold
attr source receptionStateChanged
attr title "Radio reception state, vector"
vector 85 TARPNetwork.node[21].wlan[0].radio transmissionState:vector ETV
attr interpolationmode sample-hold
attr source transmissionStateChanged
attr title "Radio transmission state, vector"
vector 86 TARPNetwork.node[22].wlan[0].radio receptionState:vector ETV
attr interpolationmode sample-hold
attr source receptionStateChanged
attr title "Radio reception state, vector"
vector 87 TARPNetwork.node[22].wlan[0].radio transmissionState:vector ETV
attr interpolationmode sample-hold
attr source transmissionStateChanged
attr title "Radio transmission state, vector"
vector 88 TARPNetwork.node[23].wlan[0].radio receptionState:vector ETV
attr interpolationmode sample-hold
attr source receptionStateChanged
attr title "Radio reception state, vector"
vector 89 TARPNetwork.node[23].wlan[0].radio transmissionState:vector ETV
attr interpolationmode sample-hold
attr source transmissionStateChanged
attr title "Radio transmission state, vector"
vector 90 TARPNetwork.node[24].wlan[0].radio receptionState:vector ETV
attr interpolationmode sample-hold
attr source receptionStateChanged
attr title "Radio reception state, vector"
vector 91 TARPNetwork.node[24].wlan[0].radio transmissionState:vector ETV
attr interpolationmode sample-hold
attr source transmissionStateChanged
attr title "Radio transmission state, vector"
vector 92 TARPNetwork.node[25].wlan[0].radio receptionState:vector ETV
attr interpolationmode sample-hold
attr source receptionStateChanged
attr title "Radio reception state, vector"
vector 93 TARPNetwork.node[25].wlan[0].radio transmissionState:vector ETV
attr interpolationmode sample-hold
attr source transmissionStateChanged
attr title "Radio transmission state, vector"
vector 94 TARPNetwork.node[26].wlan[0].radio receptionState:vector ETV
attr interpolationmode sample-hold
attr source receptionStateChanged
attr title "Radio reception state, vector"
vector 95 TARPNetwork.node[26].wlan[0].radio transmissionState:vector ETV
attr interpolationmode sample-hold
attr source transmissionStateChanged
attr title "Radio transmission state, vector"
vector 96 TARPNetwork.node[27].wlan[0].radio receptionState:vector ETV
attr interpolationmode sample-hold
attr source receptionStateChanged
attr title "Radio reception state, vector"
vector 97 TARPNetwork.node[27].wlan[0].radio transmissionState:vector ETV
attr interpolationmode sample-hold
attr source transmissionStateChanged
attr title "Radio transmission state, vector"
vector 98 TARPNetwork.node[28].wlan[0].radio receptionState:vector ETV
attr interpolationmode sample-hold
attr source receptionStateChanged
attr title "Radio reception state, vector"
vector 99 TARPNetwork.node[28].wlan[0].radio transmissionState:vector ETV
attr interpolationmode sample-hold
attr source transmissionStateChanged
attr title "Radio transmission state, vector"
vector 100 TARPNetwork.node[29].wlan[0].radio receptionState:vector ETV
attr interpolationmode sample-hold
attr source receptionStateChanged
attr title "Radio reception state, vector"
vector 101 TARPNetwork.node[29].wlan[0].radio transmissionState:vector ETV
attr interpolationmode sample-hold
attr source transmissionStateChanged
attr title "Radio transmission state, vector"
vector 102 TARPNetwork.node[30].wlan[0].radio receptionState:vector ETV
attr interpolationmode sample-hold
attr source receptionStateChanged
attr title "Radio reception state, vector"
vector 103 TARPNetwork.node[30].wlan[0].radio transmissionState:vector ETV
attr interpolationmode sample-hold
attr source transmissionStateChanged
attr title "Radio transmission state, vector"
vector 104 TARPNetwork.node[31].wlan[0].radio receptionState:vector ETV
attr interpolationmode sample-hold
attr source receptionStateChanged
attr title "Radio reception state, vector"
vector 105 TARPNetwork.node[31].wlan[0].radio transmissionState:vector ETV
attr interpolationmode sample-hold
attr source transmissionStateChanged
attr title "Radio transmission state, vector"
vector 106 TARPNetwork.node[32].wlan[0].radio receptionState:vector ETV
attr interpolationmode sample-hold
attr source receptionStateChanged
attr title "Radio reception state, vector"
vector 107 TARPNetwork.node[32].wlan[0].radio transmissionState:vector ETV
attr interpolationmode sample-hold
attr source transmissionStateChanged
attr title "Radio transmission state, vector"
vector 108 TARPNetwork.node[33].wlan[0].radio receptionState:vector ETV
attr interpolationmode sample-hold
attr source receptionStateChanged
attr title "Radio reception state, vector"
vector 109 TARPNetwork.node[33].wlan[0].radio transmissionState:vector ETV
attr interpolationmode sample-hold
attr source transmissionStateChanged
attr title "Radio transmission state, vector"
vector 110 TARPNetwork.node[34].wlan[0].radio receptionState:vector ETV
attr interpolationmode sample-hold
attr source receptionStateChanged
attr title "Radio reception state, vector"
vector 111 TARPNetwork.node[34].wlan[0].radio transmissionState:vector ETV
attr interpolationmode sample-hold
attr source transmissionStateChanged
attr title "Radio transmission state, vector"
vector 112 TARPNetwork.node[35].wlan[0].radio receptionState:vector ETV
attr interpolationmode sample-hold
attr source receptionStateChanged
attr title "Radio reception state, vector"
vector 113 TARPNetwork.node[35].wlan[0].radio transmissionState:vector ETV
attr interpolationmode sample-hold
attr source transmissionStateChanged
attr title "Radio transmission state, vector"
vector 114 TARPNetwork.node[36].wlan[0].radio receptionState:vector ETV
attr interpolationmode sample-hold
attr source receptionStateChanged
attr title "Radio reception state, vector"
vector 115 TARPNetwork.node[36].wlan[0].radio transmissionState:vector ETV
attr interpolationmode sample-hold
attr source transmissionStateChanged
attr title "Radio transmission state, vector"
vector 116 TARPNetwork.node[37].wlan[0].radio receptionState:vector ETV
attr interpolationmode sample-hold
attr source receptionStateChanged
attr title "Radio reception state, vector"
vector 117 TARPNetwork.node[37].wlan[0].radio transmissionState:vector ETV
attr interpolationmode sample-hold
attr source transmissionStateChanged
attr title "Radio transmission state, vector"
vector 118 TARPNetwork.node[38].wlan[0].radio receptionState:vector ETV
attr interpolationmode sample-hold
attr source receptionStateChanged
attr title "Radio reception state, vector"
vector 119 TARPNetwork.node[38].wlan[0].radio transmissionState:vector ETV
attr interpolationmode sample-hold
attr source transmissionStateChanged
attr title "Radio transmission state, vector"
vector 120 TARPNetwork.node[39].wlan[0].radio receptionState:vector ETV
attr interpolationmode sample-hold
attr source receptionStateChanged
attr title "Radio reception state, vector"
vector 121 TARPNetwork.node[39].wlan[0].radio transmissionState:vector ETV
attr interpolationmode sample-hold
attr source transmissionStateChanged
attr title "Radio transmission state, vector"
vector 122 TARPNetwork.nodeA.wlan[0].radio receptionState:vector ETV
attr interpolationmode sample-hold
attr source receptionStateChanged
attr title "Radio reception state, vector"
vector 123 TARPNetwork.nodeA.wlan[0].radio transmissionState:vector ETV
attr interpolationmode sample-hold
attr source transmissionStateChanged
attr title "Radio transmission state, vector"
vector 124 TARPNetwork.nodeB.wlan[0].radio receptionState:vector ETV
attr interpolationmode sample-hold
attr source receptionStateChanged
attr title "Radio reception state, vector"
vector 125 TARPNetwork.nodeB.wlan[0].radio transmissionState:vector ETV
attr interpolationmode sample-hold
attr source transmissionStateChanged
attr title "Radio transmission state, vector"
vector 126 TARPNetwork.nodeA.app[0] pingTxSeq:vector ETV
attr interpolationmode none
attr title "ping tx seq, vector"
vector 127 TARPNetwork.nodeA.wlan[0].mac rcvdPkFromHl:vector(packetBytes) ETV
attr interpolationmode none
attr source packetReceivedFromUpper
attr title "packets received from higher layer, vector(packetBytes)"
vector 128 TARPNetwork.nodeA.wlan[0].mac.queue packetPushed:vector(packetBytes) ETV
attr interpolationmode none
attr title "packet pushed, vector(packetBytes)"
vector 129 TARPNetwork.nodeA.wlan[0].mac.queue queueLength:vector ETV
attr interpolationmode sample-hold
attr source "count(packetPushed) - count(packetPopped) - count(packetRemoved) - count(packetDropped)"
attr title "queue length, vector"
vector 130 TARPNetwork.nodeA.wlan[0].mac.queue packetPopped:vector(packetBytes) ETV
attr interpolationmode none
attr title "packet popped, vector(packetBytes)"
vector 131 TARPNetwork.nodeA.wlan[0].mac.queue queueingTime:vector ETV
attr interpolationmode none
attr source queueingTime(packetPopped)
attr title "queueing times, vector"
attr unit s
vector 132 TARPNetwork.nodeA.wlan[0].mac sentDownPk:vector(packetBytes) ETV
attr interpolationmode none
attr source packetSentToLower
attr title "packets sent to lower layer, vector(packetBytes)"
vector 133 TARPNetwork.node[29].wlan[0].mac rcvdPkFromLl:vector(packetBytes) ETV
attr interpolationmode none
attr source packetReceivedFromLower
attr title "packets received from lower layer, vector(packetBytes)"
vector 134 TARPNetwork.node[29].wlan[0].mac passedUpPk:vector(packetBytes) ETV
attr interpolationmode none
attr source packetSentToUpper
attr title "packets passed to higher layer, vector(packetBytes)"
vector 135 TARPNetwork.node[29].wlan[0].mac rcvdPkFromHl:vector(packetBytes) ETV
attr interpolationmode none
attr source packetReceivedFromUpper
attr title "packets received from higher layer, vector(packetBytes)"
vector 136 TARPNetwork.node[29].wlan[0].mac.queue packetPushed:vector(packetBytes) ETV
attr interpolationmode none
attr title "packet pushed, vector(packetBytes)"
vector 137 TARPNetwork.node[29].wlan[0].mac.queue queueLength:vector ETV
attr interpolationmode sample-hold
attr source "count(packetPushed) - count(packetPopped) - count(packetRemoved) - count(packetDropped)"
attr title "queue length, vector"
vector 138 TARPNetwork.node[29].wlan[0].mac.queue packetPopped:vector(packetBytes) ETV
attr interpolationmode none
attr title "packet popped, vector(packetBytes)"
vector 139 TARPNetwork.node[29].wlan[0].mac.queue queueingTime:vector ETV
attr interpolationmode none
attr source queueingTime(packetPopped)
attr title "queueing times, vector"
attr unit s
vector 140 TARPNetwork.node[29].wlan[0].mac sentDownPk:vector(packetBytes) ETV
attr interpolationmode none
attr source packetSentToLower
attr title "packets sent to lower layer, vector(packetBytes)"
vector 141 TARPNetwork.node[36].wlan[0].mac rcvdPkFromLl:vector(packetBytes) ETV
attr interpolationmode none
attr source packetReceivedFromLower
attr title "packets received from lower layer, vector(packetBytes)"
vector 142 TARPNetwork.node[36].wlan[0].mac passedUpPk:vector(packetBytes) ETV
attr interpolationmode none
attr source packetSentToUpper
attr title "packets passed to higher layer, vector(packetBytes)"
vector 143 TARPNetwork.node[36].wlan[0].mac rcvdPkFromHl:vector(packetBytes) ETV
attr interpolationmode none
attr source packetReceivedFromUpper
attr title "packets received from higher layer, vector(packetBytes)"
vector 144 TARPNetwork.node[36].wlan[0].mac.queue packetPushed:vector(packetBytes) ETV
attr interpolationmode none
attr title "packet pushed, vector(packetBytes)"
vector 145 TARPNetwork.node[36].wlan[0].mac.queue queueLength:vector ETV
attr interpolationmode sample-hold
attr source "count(packetPushed) - count(packetPopped) - count(packetRemoved) - count(packetDropped)"
attr title "queue length, vector"
vector 146 TARPNetwork.node[36].wlan[0].mac.queue packetPopped:vector(packetBytes) ETV
attr interpolationmode none
attr title "packet popped, vector(packetBytes)"
vector 147 TARPNetwork.node[36].wlan[0].mac.queue queueingTime:vector ETV
attr interpolationmode none
attr source queueingTime(packetPopped)
attr title "queueing times, vector"
attr unit s
vector 148 TARPNetwork.node[36].wlan[0].mac sentDownPk:vector(packetBytes) ETV
attr interpolationmode none
attr source packetSentToLower
attr title "packets sent to lower layer, vector(packetBytes)"
vector 149 TARPNetwork.node[28].wlan[0].mac rcvdPkFromLl:vector(packetBytes) ETV
attr interpolationmode none
attr source packetReceivedFromLower
attr title "packets received from lower layer, vector(packetBytes)"
vector 150 TARPNetwork.node[28].wlan[0].mac passedUpPk:vector(packetBytes) ETV
attr interpolationmode none
attr source packetSentToUpper
attr title "packets passed to higher layer, vector(packetBytes)"
vector 151 TARPNetwork.node[28].wlan[0].mac rcvdPkFromHl:vector(packetBytes) ETV
attr interpolationmode none
attr source packetReceivedFromUpper
attr title "packets received from higher layer, vector(packetBytes)"
vector 152 TARPNetwork.node[28].wlan[0].mac.queue packetPushed:vector(packetBytes) ETV
attr interpolationmode none
attr title "packet pushed, vector(packetBytes)"
vector 153 TARPNetwork.node[28].wlan[0].mac.queue queueLength:vector ETV
attr interpolationmode sample-hold
attr source "count(packetPushed) - count(packetPopped) - count(packetRemoved) - count(packetDropped)"
attr title "queue length, vector"
vector 154 TARPNetwork.node[28].wlan[0].mac.queue packetPopped:vector(packetBytes) ETV
attr interpolationmode none
attr title "packet popped, vector(packetBytes)"
vector 155 TARPNetwork.node[28].wlan[0].mac.queue queueingTime:vector ETV
attr interpolationmode none
attr source queueingTime(packetPopped)
attr title "queueing times, vector"
attr unit s
vector 156 TARPNetwork.node[28].wlan[0].mac sentDownPk:vector(packetBytes) ETV
attr interpolationmode none
attr source packetSentToLower
attr title "packets sent to lower layer, vector(packetBytes)"
vector 157 TARPNetwork.node[30].wlan[0].mac rcvdPkFromLl:vector(packetBytes) ETV
attr interpolationmode none
attr source packetReceivedFromLower
attr title "packets received from lower layer, vector(packetBytes)"
vector 158 TARPNetwork.node[30].wlan[0].mac passedUpPk:vector(packetBytes) ETV
attr interpolationmode none
attr source packetSentToUpper
attr title "packets passed to higher layer, vector(packetBytes)"
vector 159 TARPNetwork.node[30].wlan[0].mac rcvdPkFromHl:vector(packetBytes) ETV
attr interpolationmode none
attr source packetReceivedFromUpper
attr title "packets received from higher layer, vector(packetBytes)"
vector 160 TARPNetwork.node[30].wlan[0].mac.queue packetPushed:vector(packetBytes) ETV
attr interpolationmode none
attr title "packet pushed, vector(packetBytes)"
vector 161 TARPNetwork.node[30].wlan[0].mac.queue queueLength:vector ETV
attr interpolationmode sample-hold
attr source "count(packetPushed) - count(packetPopped) - count(packetRemoved) - count(packetDropped)"
attr title "queue length, vector"
vector 162 TARPNetwork.node[30].wlan[0].mac.queue packetPopped:vector(packetBytes) ETV
attr interpolationmode none
attr title "packet popped, vector(packetBytes)"
vector 163 TARPNetwork.node[30].wlan[0].mac.queue queueingTime:vector ETV
attr interpolationmode none
attr source queueingTime(packetPopped)
attr title "queueing times, vector"
attr unit s
vector 164 TARPNetwork.node[30].wlan[0].mac sentDownPk:vector(packetBytes) ETV
attr interpolationmode none
attr source packetSentToLower
attr title "packets sent to lower layer, vector(packetBytes)"
vector 165 TARPNetwork.node[35].wlan[0].mac rcvdPkFromLl:vector(packetBytes) ETV
attr interpolationmode none
attr source packetReceivedFromLower
attr title "packets received from lower layer, vector(packetBytes)"
vector 166 TARPNetwork.node[35].wlan[0].mac passedUpPk:vector(packetBytes) ETV
attr interpolationmode none
attr source packetSentToUpper
attr title "packets passed to higher layer, vector(packetBytes)"
vector 167 TARPNetwork.node[35].wlan[0].mac rcvdPkFromHl:vector(packetBytes) ETV
attr interpolationmode none
attr source packetReceivedFromUpper
attr title "packets received from higher layer, vector(packetBytes)"
vector 168 TARPNetwork.node[35].wlan[0].mac.queue packetPushed:vector(packetBytes) ETV
attr interpolationmode none
attr title "packet pushed, vector(packetBytes)"
vector 169 TARPNetwork.node[35].wlan[0].mac.queue queueLength:vector ETV
attr interpolationmode sample-hold
attr source "count(packetPushed) - count(packetPopped) - count(packetRemoved) - count(packetDropped)"
attr title "queue length, vector"
vector 170 TARPNetwork.node[35].wlan[0].mac.queue packetPopped:vector(packetBytes) ETV
attr interpolationmode none
attr title "packet popped, vector(packetBytes)"
vector 171 TARPNetwork.node[35].wlan[0].mac.queue queueingTime:vector ETV
attr interpolationmode none
attr source queueingTime(packetPopped)
attr title "queueing times, vector"
attr unit s
vector 172 TARPNetwork.node[35].wlan[0].mac sentDownPk:vector(packetBytes) ETV
attr interpolationmode none
attr source packetSentToLower
attr title "packets sent to lower layer, vector(packetBytes)"
vector 173 TARPNetwork.node[37].wlan[0].mac rcvdPkFromLl:vector(packetBytes) ETV
attr interpolationmode none
attr source packetReceivedFromLower
attr title "packets received from lower layer, vector(packetBytes)"
vector 174 TARPNetwork.node[37].wlan[0].mac passedUpPk:vector(packetBytes) ETV
attr interpolationmode none
attr source packetSentToUpper
attr title "packets passed to higher layer, vector(packetBytes)"
vector 175 TARPNetwork.node[37].wlan[0].mac rcvdPkFromHl:vector(packetBytes) ETV
attr interpolationmode none
attr source packetReceivedFromUpper
attr title "packets received from higher layer, vector(packetBytes)"
vector 176 TARPNetwork.node[37].wlan[0].mac.queue packetPushed:vector(packetBytes) ETV
attr interpolationmode none
attr title "packet pushed, vector(packetBytes)"
vector 177 TARPNetwork.node[37].wlan[0].mac.queue queueLength:vector ETV
attr interpolationmode sample-hold
attr source "count(packetPushed) - count(packetPopped) - count(packetRemoved) - count(packetDropped)"
attr title "queue length, vector"
vector 178 TARPNetwork.node[37].wlan[0].mac.queue packetPopped:vector(packetBytes) ETV
attr interpolationmode none
attr title "packet popped, vector(packetBytes)"
vector 179 TARPNetwork.node[37].wlan[0].mac.queue queueingTime:vector ETV
attr interpolationmode none
attr source queueingTime(packetPopped)
attr title "queueing times, vector"
attr unit s
vector 180 TARPNetwork.node[37].wlan[0].mac sentDownPk:vector(packetBytes) ETV
attr interpolationmode none
attr source packetSentToLower
attr title "packets sent to lower layer, vector(packetBytes)"
vector 181 TARPNetwork.nodeA.wlan[0].mac rcvdPkFromLl:vector(packetBytes) ETV
attr interpolationmode none
attr source packetReceivedFromLower
attr title "packets received from lower layer, vector(packetBytes)"
vector 182 TARPNetwork.nodeA.wlan[0].mac passedUpPk:vector(packetBytes) ETV
attr interpolationmode none
attr source packetSentToUpper
attr title "packets passed to higher layer, vector(packetBytes)"
vector 183 TARPNetwork.node[22].wlan[0].mac rcvdPkFromLl:vector(packetBytes) ETV
attr interpolationmode none
attr source packetReceivedFromLower
attr title "packets received from lower layer, vector(packetBytes)"
vector 184 TARPNetwork.node[22].wlan[0].mac passedUpPk:vector(packetBytes) ETV
attr interpolationmode none
attr source packetSentToUpper
attr title "packets passed to higher layer, vector(packetBytes)"
vector 185 TARPNetwork.node[22].wlan[0].mac rcvdPkFromHl:vector(packetBytes) ETV
attr interpolationmode none
attr source packetReceivedFromUpper
attr title "packets received from higher layer, vector(packetBytes)"
vector 186 TARPNetwork.node[22].wlan[0].mac.queue packetPushed:vector(packetBytes) ETV
attr interpolationmode none
attr title "packet pushed, vector(packetBytes)"
vector 187 TARPNetwork.node[22].wlan[0].mac.queue queueLength:vector ETV
attr interpolationmode sample-hold
attr source "count(packetPushed) - count(packetPopped) - count(packetRemoved) - count(packetDropped)"
attr title "queue length, vector"
vector 188 TARPNetwork.node[22].wlan[0].mac.queue packetPopped:vector(packetBytes) ETV
attr interpolationmode none
attr title "packet popped, vector(packetBytes)"
vector 189 TARPNetwork.node[22].wlan[0].mac.queue queueingTime:vector ETV
attr interpolationmode none
attr source queueingTime(packetPopped)
attr title "queueing times, vector"
attr unit s
vector 190 TARPNetwork.node[22].wlan[0].mac sentDownPk:vector(packetBytes) ETV
attr interpolationmode none
attr source packetSentToLower
attr title "packets sent to lower layer, vector(packetBytes)"
vector 191 TARPNetwork.node[21].wlan[0].mac rcvdPkFromLl:vector(packetBytes) ETV
attr interpolationmode none
attr source packetReceivedFromLower
attr title "packets received from lower layer, vector(packetBytes)"
vector 192 TARPNetwork.node[21].wlan[0].mac passedUpPk:vector(packetBytes) ETV
attr interpolationmode none
attr source packetSentToUpper
attr title "packets passed to higher layer, vector(packetBytes)"
vector 193 TARPNetwork.node[21].wlan[0].mac rcvdPkFromHl:vector(packetBytes) ETV
attr interpolationmode none
attr source packetReceivedFromUpper
attr title "packets received from higher layer, vector(packetBytes)"
vector 194 TARPNetwork.node[21].wlan[0].mac.queue packetPushed:vector(packetBytes) ETV
attr interpolationmode none
attr title "packet pushed, vector(packetBytes)"
vector 195 TARPNetwork.node[21].wlan[0].mac.queue queueLength:vector ETV
attr interpolationmode sample-hold
attr source "count(packetPushed) - count(packetPopped) - count(packetRemoved) - count(packetDropped)"
attr title "queue length, vector"
vector 196 TARPNetwork.node[21].wlan[0].mac.queue packetPopped:vector(packetBytes) ETV
attr interpolationmode none
attr title "packet popped, vector(packetBytes)"
vector 197 TARPNetwork.node[21].wlan[0].mac.queue queueingTime:vector ETV
attr interpolationmode none
attr source queueingTime(packetPopped)
attr title "queueing times, vector"
attr unit s
vector 198 TARPNetwork.node[21].wlan[0].mac sentDownPk:vector(packetBytes) ETV
attr interpolationmode none
attr source packetSentToLower
attr title "packets sent to lower layer, vector(packetBytes)"
vector 199 TARPNetwork.node[31].wlan[0].mac rcvdPkFromLl:vector(packetBytes) ETV
attr interpolationmode none
attr source packetReceivedFromLower
attr title "packets received from lower layer, vector(packetBytes)"
vector 200 TARPNetwork.node[31].wlan[0].mac passedUpPk:vector(packetBytes) ETV
attr interpolationmode none
attr source packetSentToUpper
attr title "packets passed to higher layer, vector(packetBytes)"
vector 201 TARPNetwork.node[31].wlan[0].mac rcvdPkFromHl:vector(packetBytes) ETV
attr interpolationmode none
attr source packetReceivedFromUpper
attr title "packets received from higher layer, vector(packetBytes)"
vector 202 TARPNetwork.node[31].wlan[0].mac.queue packetPushed:vector(packetBytes) ETV
attr interpolationmode none
attr title "packet pushed, vector(packetBytes)"
vector 203 TARPNetwork.node[31].wlan[0].mac.queue queueLength:vector ETV
attr interpolationmode sample-hold
attr source "count(packetPushed) - count(packetPopped) - count(packetRemoved) - count(packetDropped)"
attr title "queue length, vector"
vector 204 TARPNetwork.node[31].wlan[0].mac.queue packetPopped:vector(packetBytes) ETV
attr interpolationmode none
attr title "packet popped, vector(packetBytes)"
vector 205 TARPNetwork.node[31].wlan[0].mac.queue queueingTime:vector ETV
attr interpolationmode none
attr source queueingTime(packetPopped)
attr title "queueing times, vector"
attr unit s
vector 206 TARPNetwork.node[31].wlan[0].mac sentDownPk:vector(packetBytes) ETV
attr interpolationmode none
attr source packetSentToLower
attr title "packets sent to lower layer, vector(packetBytes)"
vector 207 TARPNetwork.node[23].wlan[0].mac rcvdPkFromLl:vector(packetBytes) ETV
attr interpolationmode none
attr source packetReceivedFromLower
attr title "packets received from lower layer, vector(packetBytes)"
vector 208 TARPNetwork.node[23].wlan[0].mac passedUpPk:vector(packetBytes) ETV
attr interpolationmode none
attr source packetSentToUpper
attr title "packets passed to higher layer, vector(packetBytes)"
vector 209 TARPNetwork.node[23].wlan[0].mac rcvdPkFromHl:vector(packetBytes) ETV
attr interpolationmode none
attr source packetReceivedFromUpper
attr title "packets received from higher layer, vector(packetBytes)"
vector 210 TARPNetwork.node[23].wlan[0].mac.queue packetPushed:vector(packetBytes) ETV
attr interpolationmode none
attr title "packet pushed, vector(packetBytes)"
vector 211 TARPNetwork.node[23].wlan[0].mac.queue queueLength:vector ETV
attr interpolationmode sample-hold
attr source "count(packetPushed) - count(packetPopped) - count(packetRemoved) - count(packetDropped)"
attr title "queue length, vector"
vector 212 TARPNetwork.node[23].wlan[0].mac.queue packetPopped:vector(packetBytes) ETV
attr interpolationmode none
attr title "packet popped, vector(packetBytes)"
vector 213 TARPNetwork.node[23].wlan[0].mac.queue queueingTime:vector ETV
attr interpolationmode none
attr source queueingTime(packetPopped)
attr title "queueing times, vector"
attr unit s
vector 214 TARPNetwork.node[23].wlan[0].mac sentDownPk:vector(packetBytes) ETV
attr interpolationmode none
attr source packetSentToLower
attr title "packets sent to lower layer, vector(packetBytes)"
vector 215 TARPNetwork.node[38].wlan[0].mac rcvdPkFromLl:vector(packetBytes) ETV
attr interpolationmode none
attr source packetReceivedFromLower
attr title "packets received from lower layer, vector(packetBytes)"
vector 216 TARPNetwork.node[38].wlan[0].mac passedUpPk:vector(packetBytes) ETV
attr interpolationmode none
attr source packetSentToUpper
attr title "packets passed to higher layer, vector(packetBytes)"
vector 217 TARPNetwork.node[38].wlan[0].mac rcvdPkFromHl:vector(packetBytes) ETV
attr interpolationmode none
attr source packetReceivedFromUpper
attr title "packets received from higher layer, vector(packetBytes)"
vector 218 TARPNetwork.node[38].wlan[0].mac.queue packetPushed:vector(packetBytes) ETV
attr interpolationmode none
attr title "packet pushed, vector(packetBytes)"
vector 219 TARPNetwork.node[38].wlan[0].mac.queue queueLength:vector ETV
attr interpolationmode sample-hold
attr source "count(packetPushed) - count(packetPopped) - count(packetRemoved) - count(packetDropped)"
attr title "queue length, vector"
vector 220 TARPNetwork.node[38].wlan[0].mac.queue packetPopped:vector(packetBytes) ETV
attr interpolationmode none
attr title "packet popped, vector(packetBytes)"
vector 221 TARPNetwork.node[38].wlan[0].mac.queue queueingTime:vector ETV
attr interpolationmode none
attr source queueingTime(packetPopped)
attr title "queueing times, vector"
attr unit s
vector 222 TARPNetwork.node[38].wlan[0].mac sentDownPk:vector(packetBytes) ETV
attr interpolationmode none
attr source packetSentToLower
attr title "packets sent to lower layer, vector(packetBytes)"
vector 223 TARPNetwork.node[15].wlan[0].mac rcvdPkFromLl:vector(packetBytes) ETV
attr interpolationmode none
attr source packetReceivedFromLower
attr title "packets received from lower layer, vector(packetBytes)"
vector 224 TARPNetwork.node[15].wlan[0].mac passedUpPk:vector(packetBytes) ETV
attr interpolationmode none
attr source packetSentToUpper
attr title "packets passed to higher layer, vector(packetBytes)"
vector 225 TARPNetwork.node[15].wlan[0].mac rcvdPkFromHl:vector(packetBytes) ETV
attr interpolationmode none
attr source packetReceivedFromUpper
attr title "packets received from higher layer, vector(packetBytes)"
vector 226 TARPNetwork.node[15].wlan[0].mac.queue packetPushed:vector(packetBytes) ETV
attr interpolationmode none
attr title "packet pushed, vector(packetBytes)"
vector 227 TARPNetwork.node[15].wlan[0].mac.queue queueLength:vector ETV
attr interpolationmode sample-hold
attr source "count(packetPushed) - count(packetPopped) - count(packetRemoved) - count(packetDropped)"
attr title "queue length, vector"
vector 228 TARPNetwork.node[15].wlan[0].mac.queue packetPopped:vector(packetBytes) ETV
attr interpolationmode none
attr title "packet popped, vector(packetBytes)"
vector 229 TARPNetwork.node[15].wlan[0].mac.queue queueingTime:vector ETV
attr interpolationmode none
attr source queueingTime(packetPopped)
attr title "queueing times, vector"
attr unit s
vector 230 TARPNetwork.node[15].wlan[0].mac sentDownPk:vector(packetBytes) ETV
attr interpolationmode none
attr source packetSentToLower
attr title "packets sent to lower layer, vector(packetBytes)"
vector 231 TARPNetwork.node[32].wlan[0].mac rcvdPkFromLl:vector(packetBytes) ETV
attr interpolationmode none
attr source packetReceivedFromLower
attr title "packets received from lower layer, vector(packetBytes)"
vector 232 TARPNetwork.node[32].wlan[0].mac passedUpPk:vector(packetBytes) ETV
attr interpolationmode none
attr source packetSentToUpper
attr title "packets passed to higher layer, vector(packetBytes)"
vector 233 TARPNetwork.node[32].wlan[0].mac rcvdPkFromHl:vector(packetBytes) ETV
attr interpolationmode none
attr source packetReceivedFromUpper
attr title "packets received from higher layer, vector(packetBytes)"
vector 234 TARPNetwork.node[32].wlan[0].mac.queue packetPushed:vector(packetBytes) ETV
attr interpolationmode none
attr title "packet pushed, vector(packetBytes)"
vector 235 TARPNetwork.node[32].wlan[0].mac.queue queueLength:vector ETV
attr interpolationmode sample-hold
attr source "count(packetPushed) - count(packetPopped) - count(packetRemoved) - count(packetDropped)"
attr title "queue length, vector"
vector 236 TARPNetwork.node[32].wlan[0].mac.queue packetPopped:vector(packetBytes) ETV
attr interpolationmode none
attr title "packet popped, vector(packetBytes)"
vector 237 TARPNetwork.node[32].wlan[0].mac.queue queueingTime:vector ETV
attr interpolationmode none
attr source queueingTime(packetPopped)
attr title "queueing times, vector"
attr unit s
vector 238 TARPNetwork.node[32].wlan[0].mac sentDownPk:vector(packetBytes) ETV
attr interpolationmode none
attr source packetSentToLower
attr title "packets sent to lower layer, vector(packetBytes)"
vector 239 TARPNetwork.node[14].wlan[0].mac rcvdPkFromLl:vector(packetBytes) ETV
attr interpolationmode none
attr source packetReceivedFromLower
attr title "packets received from lower layer, vector(packetBytes)"
vector 240 TARPNetwork.node[14].wlan[0].mac passedUpPk:vector(packetBytes) ETV
attr interpolationmode none
attr source packetSentToUpper
attr title "packets passed to higher layer, vector(packetBytes)"
vector 241 TARPNetwork.node[14].wlan[0].mac rcvdPkFromHl:vector(packetBytes) ETV
attr interpolationmode none
attr source packetReceivedFromUpper
attr title "packets received from higher layer, vector(packetBytes)"
vector 242 TARPNetwork.node[14].wlan[0].mac.queue packetPushed:vector(packetBytes) ETV
attr interpolationmode none
attr title "packet pushed, vector(packetBytes)"
vector 243 TARPNetwork.node[14].wlan[0].mac.queue queueLength:vector ETV
attr interpolationmode sample-hold
attr source "count(packetPushed) - count(packetPopped) - count(packetRemoved) - count(packetDropped)"
attr title "queue length, vector"
vector 244 TARPNetwork.node[14].wlan[0].mac.queue packetPopped:vector(packetBytes) ETV
attr interpolationmode none
attr title "packet popped, vector(packetBytes)"
vector 245 TARPNetwork.node[14].wlan[0].mac.queue queueingTime:vector ETV
attr interpolationmode none
attr source queueingTime(packetPopped)
attr title "queueing times, vector"
attr unit s
vector 246 TARPNetwork.node[14].wlan[0].mac sentDownPk:vector(packetBytes) ETV
attr interpolationmode none
attr source packetSentToLower
attr title "packets sent to lower layer, vector(packetBytes)"
vector 247 TARPNetwork.node[24].wlan[0].mac rcvdPkFromLl:vector(packetBytes) ETV
attr interpolationmode none
attr source packetReceivedFromLower
attr title "packets received from lower layer, vector(packetBytes)"
vector 248 TARPNetwork.node[24].wlan[0].mac passedUpPk:vector(packetBytes) ETV
attr interpolationmode none
attr source packetSentToUpper
attr title "packets passed to higher layer, vector(packetBytes)"
vector 249 TARPNetwork.node[24].wlan[0].mac rcvdPkFromHl:vector(packetBytes) ETV
attr interpolationmode none
attr source packetReceivedFromUpper
attr title "packets received from higher layer, vector(packetBytes)"
vector 250 TARPNetwork.node[24].wlan[0].mac.queue packetPushed:vector(packetBytes) ETV
attr interpolationmode none
attr title "packet pushed, vector(packetBytes)"
vector 251 TARPNetwork.node[24].wlan[0].mac.queue queueLength:vector ETV
attr interpolationmode sample-hold
attr source "count(packetPushed) - count(packetPopped) - count(packetRemoved) - count(packetDropped)"
attr title "queue length, vector"
vector 252 TARPNetwork.node[24].wlan[0].mac.queue packetPopped:vector(packetBytes) ETV
attr interpolationmode none
attr title "packet popped, vector(packetBytes)"
vector 253 TARPNetwork.node[24].wlan[0].mac.queue queueingTime:vector ETV
attr interpolationmode none
attr source queueingTime(packetPopped)
attr title "queueing times, vector"
attr unit s
vector 254 TARPNetwork.node[24].wlan[0].mac sentDownPk:vector(packetBytes) ETV
attr interpolationmode none
attr source packetSentToLower
attr title "packets sent to lower layer, vector(packetBytes)"
vector 255 TARPNetwork.node[39].wlan[0].mac rcvdPkFromLl:vector(packetBytes) ETV
attr interpolationmode none
attr source packetReceivedFromLower
attr title "packets received from lower layer, vector(packetBytes)"
vector 256 TARPNetwork.node[39].wlan[0].mac passedUpPk:vector(packetBytes) ETV
attr interpolationmode none
attr source packetSentToUpper
attr title "packets passed to higher layer, vector(packetBytes)"
vector 257 TARPNetwork.node[39].wlan[0].mac rcvdPkFromHl:vector(packetBytes) ETV
attr interpolationmode none
attr source packetReceivedFromUpper
attr title "packets received from higher layer, vector(packetBytes)"
vector 258 TARPNetwork.node[39].wlan[0].mac.queue packetPushed:vector(packetBytes) ETV
attr interpolationmode none
attr title "packet pushed, vector(packetBytes)"
vector 259 TARPNetwork.node[39].wlan[0].mac.queue queueLength:vector ETV
attr interpolationmode sample-hold
attr source "count(packetPushed) - count(packetPopped) - count(packetRemoved) - count(packetDropped)"
attr title "queue length, vector"
vector 260 TARPNetwork.node[39].wlan[0].mac.queue packetPopped:vector(packetBytes) ETV
attr interpolationmode none
attr title "packet popped, vector(packetBytes)"
vector 261 TARPNetwork.node[39].wlan[0].mac.queue queueingTime:vector ETV
attr interpolationmode none
attr source queueingTime(packetPopped)
attr title "queueing times, vector"
attr unit s
vector 262 TARPNetwork.node[39].wlan[0].mac sentDownPk:vector(packetBytes) ETV
attr interpolationmode none
attr source packetSentToLower
attr title "packets sent to lower layer, vector(packetBytes)"
vector 263 TARPNetwork.node[16].wlan[0].mac rcvdPkFromLl:vector(packetBytes) ETV
attr interpolationmode none
attr source packetReceivedFromLower
attr title "packets received from lower layer, vector(packetBytes)"
vector 264 TARPNetwork.node[16].wlan[0].mac passedUpPk:vector(packetBytes) ETV
attr interpolationmode none
attr source packetSentToUpper
attr title "packets passed to higher layer, vector(packetBytes)"
vector 265 TARPNetwork.node[16].wlan[0].mac rcvdPkFromHl:vector(packetBytes) ETV
attr interpolationmode none
attr source packetReceivedFromUpper
attr title "packets received from higher layer, vector(packetBytes)"
vector 266 TARPNetwork.node[16].wlan[0].mac.queue packetPushed:vector(packetBytes) ETV
attr interpolationmode none
attr title "packet pushed, vector(packetBytes)"
vector 267 TARPNetwork.node[16].wlan[0].mac.queue queueLength:vector ETV
attr interpolationmode sample-hold
attr source "count(packetPushed) - count(packetPopped) - count(packetRemoved) - count(packetDropped)"
attr title "queue length, vector"
vector 268 TARPNetwork.node[16].wlan[0].mac.queue packetPopped:vector(packetBytes) ETV
attr interpolationmode none
attr title "packet popped, vector(packetBytes)"
vector 269 TARPNetwork.node[16].wlan[0].mac.queue queueingTime:vector ETV
attr interpolationmode none
attr source queueingTime(packetPopped)
attr title "queueing times, vector"
attr unit s
vector 270 TARPNetwork.node[16].wlan[0].mac sentDownPk:vector(packetBytes) ETV
attr interpolationmode none
attr source packetSentToLower
attr title "packets sent to lower layer, vector(packetBytes)"
vector 271 TARPNetwork.node[8].wlan[0].mac rcvdPkFromLl:vector(packetBytes) ETV
attr interpolationmode none
attr source packetReceivedFromLower
attr title "packets received from lower layer, vector(packetBytes)"
vector 272 TARPNetwork.node[8].wlan[0].mac passedUpPk:vector(packetBytes) ETV
attr interpolationmode none
attr source packetSentToUpper
attr title "packets passed to higher layer, vector(packetBytes)"
vector 273 TARPNetwork.node[8].wlan[0].mac rcvdPkFromHl:vector(packetBytes) ETV
attr interpolationmode none
attr source packetReceivedFromUpper
attr title "packets received from higher layer, vector(packetBytes)"
vector 274 TARPNetwork.node[8].wlan[0].mac.queue packetPushed:vector(packetBytes) ETV
attr interpolationmode none
attr title "packet pushed, vector(packetBytes)"
vector 275 TARPNetwork.node[8].wlan[0].mac.queue queueLength:vector ETV
attr interpolationmode sample-hold
attr source "count(packetPushed) - count(packetPopped) - count(packetRemoved) - count(packetDropped)"
attr title "queue length, vector"
vector 276 TARPNetwork.node[8].wlan[0].mac.queue packetPopped:vector(packetBytes) ETV
attr interpolationmode none
attr title "packet popped, vector(packetBytes)"
vector 277 TARPNetwork.node[8].wlan[0].mac.queue queueingTime:vector ETV
attr interpolationmode none
attr source queueingTime(packetPopped)
attr title "queueing times, vector"
attr unit s
vector 278 TARPNetwork.node[8].wlan[0].mac sentDownPk:vector(packetBytes) ETV
attr interpolationmode none
attr source packetSentToLower
attr title "packets sent to lower layer, vector(packetBytes)"
vector 279 TARPNetwork.node[33].wlan[0].mac rcvdPkFromLl:vector(packetBytes) ETV
attr interpolationmode none
attr source packetReceivedFromLower
attr title "packets received from lower layer, vector(packetBytes)"
vector 280 TARPNetwork.node[33].wlan[0].mac passedUpPk:vector(packetBytes) ETV
attr interpolationmode none
attr source packetSentToUpper
attr title "packets passed to higher layer, vector(packetBytes)"
vector 281 TARPNetwork.node[33].wlan[0].mac rcvdPkFromHl:vector(packetBytes) ETV
attr interpolationmode none
attr source packetReceivedFromUpper
attr title "packets received from higher layer, vector(packetBytes)"
vector 282 TARPNetwork.node[33].wlan[0].mac.queue packetPushed:vector(packetBytes) ETV
attr interpolationmode none
attr title "packet pushed, vector(packetBytes)"
vector 283 TARPNetwork.node[33].wlan[0].mac.queue queueLength:vector ETV
attr interpolationmode sample-hold
attr source "count(packetPushed) - count(packetPopped) - count(packetRemoved) - count(packetDropped)"
attr title "queue length, vector"
vector 284 TARPNetwork.node[33].wlan[0].mac.queue packetPopped:vector(packetBytes) ETV
attr interpolationmode none
attr title "packet popped, vector(packetBytes)"
vector 285 TARPNetwork.node[33].wlan[0].mac.queue queueingTime:vector ETV
attr interpolationmode none
attr source queueingTime(packetPopped)
attr title "queueing times, vector"
attr unit s
vector 286 TARPNetwork.node[33].wlan[0].mac sentDownPk:vector(packetBytes) ETV
attr interpolationmode none
attr source packetSentToLower
attr title "packets sent to lower layer, vector(packetBytes)"
vector 287 TARPNetwork.node[25].wlan[0].mac rcvdPkFromLl:vector(packetBytes) ETV
attr interpolationmode none
attr source packetReceivedFromLower
attr title "packets received from lower layer, vector(packetBytes)"
vector 288 TARPNetwork.node[25].wlan[0].mac passedUpPk:vector(packetBytes) ETV
attr interpolationmode none
attr source packetSentToUpper
attr title "packets passed to higher layer, vector(packetBytes)"
vector 289 TARPNetwork.node[25].wlan[0].mac rcvdPkFromHl:vector(packetBytes) ETV
attr interpolationmode none
attr source packetReceivedFromUpper
attr title "packets received from higher layer, vector(packetBytes)"
vector 290 TARPNetwork.node[25].wlan[0].mac.queue packetPushed:vector(packetBytes) ETV
attr interpolationmode none
attr title "packet pushed, vector(packetBytes)"
vector 291 TARPNetwork.node[25].wlan[0].mac.queue queueLength:vector ETV
attr interpolationmode sample-hold
attr source "count(packetPushed) - count(packetPopped) - count(packetRemoved) - count(packetDropped)"
attr title "queue length, vector"
vector 292 TARPNetwork.node[25].wlan[0].mac.queue packetPopped:vector(packetBytes) ETV
attr interpolationmode none
attr title "packet popped, vector(packetBytes)"
vector 293 TARPNetwork.node[25].wlan[0].mac.queue queueingTime:vector ETV
attr interpolationmode none
attr source queueingTime(packetPopped)
attr title "queueing times, vector"
attr unit s
vector 294 TARPNetwork.node[25].wlan[0].mac sentDownPk:vector(packetBytes) ETV
attr interpolationmode none
attr source packetSentToLower
attr title "packets sent to lower layer, vector(packetBytes)"
vector 295 TARPNetwork.node[7].wlan[0].mac rcvdPkFromLl:vector(packetBytes) ETV
attr interpolationmode none
attr source packetReceivedFromLower
attr title "packets received from lower layer, vector(packetBytes)"
vector 296 TARPNetwork.node[7].wlan[0].mac passedUpPk:vector(packetBytes) ETV
attr interpolationmode none
attr source packetSentToUpper
attr title "packets passed to higher layer, vector(packetBytes)"
vector 297 TARPNetwork.node[7].wlan[0].mac rcvdPkFromHl:vector(packetBytes) ETV
attr interpolationmode none
attr source packetReceivedFromUpper
attr title "packets received from higher layer, vector(packetBytes)"
vector 298 TARPNetwork.node[7].wlan[0].mac.queue packetPushed:vector(packetBytes) ETV
attr interpolationmode none
attr title "packet pushed, vector(packetBytes)"
vector 299 TARPNetwork.node[7].wlan[0].mac.queue queueLength:vector ETV
attr interpolationmode sample-hold
attr source "count(packetPushed) - count(packetPopped) - count(packetRemoved) - count(packetDropped)"
attr title "queue length, vector"
vector 300 TARPNetwork.node[7].wlan[0].mac.queue packetPopped:vector(packetBytes) ETV
attr interpolationmode none
attr title "packet popped, vector(packetBytes)"
vector 301 TARPNetwork.node[7].wlan[0].mac.queue queueingTime:vector ETV
attr interpolationmode none
attr source queueingTime(packetPopped)
attr title "queueing times, vector"
attr unit s
vector 302 TARPNetwork.node[7].wlan[0].mac sentDownPk:vector(packetBytes) ETV
attr interpolationmode none
attr source packetSentToLower
attr title "packets sent to lower layer, vector(packetBytes)"
vector 303 TARPNetwork.node[17].wlan[0].mac rcvdPkFromLl:vector(packetBytes) ETV
attr interpolationmode none
attr source packetReceivedFromLower
attr title "packets received from lower layer, vector(packetBytes)"
vector 304 TARPNetwork.node[17].wlan[0].mac passedUpPk:vector(packetBytes) ETV
attr interpolationmode none
attr source packetSentToUpper
attr title "packets passed to higher layer, vector(packetBytes)"
vector 305 TARPNetwork.node[17].wlan[0].mac rcvdPkFromHl:vector(packetBytes) ETV
attr interpolationmode none
attr source packetReceivedFromUpper
attr title "packets received from higher layer, vector(packetBytes)"
vector 306 TARPNetwork.node[17].wlan[0].mac.queue packetPushed:vector(packetBytes) ETV
attr interpolationmode none
attr title "packet pushed, vector(packetBytes)"
vector 307 TARPNetwork.node[17].wlan[0].mac.queue queueLength:vector ETV
attr interpolationmode sample-hold
attr source "count(packetPushed) - count(packetPopped) - count(packetRemoved) - count(packetDropped)"
attr title "queue length, vector"
vector 308 TARPNetwork.node[17].wlan[0].mac.queue packetPopped:vector(packetBytes) ETV
attr interpolationmode none
attr title "packet popped, vector(packetBytes)"
vector 309 TARPNetwork.node[17].wlan[0].mac.queue queueingTime:vector ETV
attr interpolationmode none
attr source queueingTime(packetPopped)
attr title "queueing times, vector"
attr unit s
vector 310 TARPNetwork.node[17].wlan[0].mac sentDownPk:vector(packetBytes) ETV
attr interpolationmode none
attr source packetSentToLower
attr title "packets sent to lower layer, vector(packetBytes)"
vector 311 TARPNetwork.node[9].wlan[0].mac rcvdPkFromLl:vector(packetBytes) ETV
attr interpolationmode none
attr source packetReceivedFromLower
attr title "packets received from lower layer, vector(packetBytes)"
vector 312 TARPNetwork.node[9].wlan[0].mac passedUpPk:vector(packetBytes) ETV
attr interpolationmode none
attr source packetSentToUpper
attr title "packets passed to higher layer, vector(packetBytes)"
vector 313 TARPNetwork.node[9].wlan[0].mac rcvdPkFromHl:vector(packetBytes) ETV
attr interpolationmode none
attr source packetReceivedFromUpper
attr title "packets received from higher layer, vector(packetBytes)"
vector 314 TARPNetwork.node[9].wlan[0].mac.queue packetPushed:vector(packetBytes) ETV
attr interpolationmode none
attr title "packet pushed, vector(packetBytes)"
vector 315 TARPNetwork.node[9].wlan[0].mac.queue queueLength:vector ETV
attr interpolationmode sample-hold
attr source "count(packetPushed) - count(packetPopped) - count(packetRemoved) - count(packetDropped)"
attr title "queue length, vector"
vector 316 TARPNetwork.node[9].wlan[0].mac.queue packetPopped:vector(packetBytes) ETV
attr interpolationmode none
attr title "packet popped, vector(packetBytes)"
vector 317 TARPNetwork.node[9].wlan[0].mac.queue queueingTime:vector ETV
attr interpolationmode none
attr source queueingTime(packetPopped)
attr title "queueing times, vector"
attr unit s
vector 318 TARPNetwork.node[9].wlan[0].mac sentDownPk:vector(packetBytes) ETV
attr interpolationmode none
attr source packetSentToLower
attr title "packets sent to lower layer, vector(packetBytes)"
vector 319 TARPNetwork.node[1].wlan[0].mac rcvdPkFromLl:vector(packetBytes) ETV
attr interpolationmode none
attr source packetReceivedFromLower
attr title "packets received from lower layer, vector(packetBytes)"
vector 320 TARPNetwork.node[1].wlan[0].mac passedUpPk:vector(packetBytes) ETV
attr interpolationmode none
attr source packetSentToUpper
attr title "packets passed to higher layer, vector(packetBytes)"
vector 321 TARPNetwork.node[1].wlan[0].mac rcvdPkFromHl:vector(packetBytes) ETV
attr interpolationmode none
attr source packetReceivedFromUpper
attr title "packets received from higher layer, vector(packetBytes)"
vector 322 TARPNetwork.node[1].wlan[0].mac.queue packetPushed:vector(packetBytes) ETV
attr interpolationmode none
attr title "packet pushed, vector(packetBytes)"
vector 323 TARPNetwork.node[1].wlan[0].mac.queue queueLength:vector ETV
attr interpolationmode sample-hold
attr source "count(packetPushed) - count(packetPopped) - count(packetRemoved) - count(packetDropped)"
attr title "queue length, vector"
vector 324 TARPNetwork.node[1].wlan[0].mac.queue packetPopped:vector(packetBytes) ETV
attr interpolationmode none
attr title "packet popped, vector(packetBytes)"
vector 325 TARPNetwork.node[1].wlan[0].mac.queue queueingTime:vector ETV
attr interpolationmode none
attr source queueingTime(packetPopped)
attr title "queueing times, vector"
attr unit s
vector 326 TARPNetwork.node[1].wlan[0].mac sentDownPk:vector(packetBytes) ETV
attr interpolationmode none
attr source packetSentToLower
attr title "packets sent to lower layer, vector(packetBytes)"
vector 327 TARPNetwork.node[34].wlan[0].mac rcvdPkFromLl:vector(packetBytes) ETV
attr interpolationmode none
attr source packetReceivedFromLower
attr title "packets received from lower layer, vector(packetBytes)"
vector 328 TARPNetwork.node[34].wlan[0].mac passedUpPk:vector(packetBytes) ETV
attr interpolationmode none
attr source packetSentToUpper
attr title "packets passed to higher layer, vector(packetBytes)"
vector 329 TARPNetwork.node[34].wlan[0].mac rcvdPkFromHl:vector(packetBytes) ETV
attr interpolationmode none
attr source packetReceivedFromUpper
attr title "packets received from higher layer, vector(packetBytes)"
vector 330 TARPNetwork.node[34].wlan[0].mac.queue packetPushed:vector(packetBytes) ETV
attr interpolationmode none
attr title "packet pushed, vector(packetBytes)"
vector 331 TARPNetwork.node[34].wlan[0].mac.queue queueLength:vector ETV
attr interpolationmode sample-hold
attr source "count(packetPushed) - count(packetPopped) - count(packetRemoved) - count(packetDropped)"
attr title "queue length, vector"
vector 332 TARPNetwork.node[34].wlan[0].mac.queue packetPopped:vector(packetBytes) ETV
attr interpolationmode none
attr title "packet popped, vector(packetBytes)"
vector 333 TARPNetwork.node[34].wlan[0].mac.queue queueingTime:vector ETV
attr interpolationmode none
attr source queueingTime(packetPopped)
attr title "queueing times, vector"
attr unit s
vector 334 TARPNetwork.node[34].wlan[0].mac sentDownPk:vector(packetBytes) ETV
attr interpolationmode none
attr source packetSentToLower
attr title "packets sent to lower layer, vector(packetBytes)"
vector 335 TARPNetwork.node[26].wlan[0].mac rcvdPkFromLl:vector(packetBytes) ETV
attr interpolationmode none
attr source packetReceivedFromLower
attr title "packets received from lower layer, vector(packetBytes)"
vector 336 TARPNetwork.node[26].wlan[0].mac passedUpPk:vector(packetBytes) ETV
attr interpolationmode none
attr source packetSentToUpper
attr title "packets passed to higher layer, vector(packetBytes)"
vector 337 TARPNetwork.node[26].wlan[0].mac rcvdPkFromHl:vector(packetBytes) ETV
attr interpolationmode none
attr source packetReceivedFromUpper
attr title "packets received from higher layer, vector(packetBytes)"
vector 338 TARPNetwork.node[26].wlan[0].mac.queue packetPushed:vector(packetBytes) ETV
attr interpolationmode none
attr title "packet pushed, vector(packetBytes)"
vector 339 TARPNetwork.node[26].wlan[0].mac.queue queueLength:vector ETV
attr interpolationmode sample-hold
attr source "count(packetPushed) - count(packetPopped) - count(packetRemoved) - count(packetDropped)"
attr title "queue length, vector"
vector 340 TARPNetwork.node[26].wlan[0].mac.queue packetPopped:vector(packetBytes) ETV
attr interpolationmode none
attr title "packet popped, vector(packetBytes)"
vector 341 TARPNetwork.node[26].wlan[0].mac.queue queueingTime:vector ETV
attr interpolationmode none
attr source queueingTime(packetPopped)
attr title "queueing times, vector"
attr unit s
vector 342 TARPNetwork.node[26].wlan[0].mac sentDownPk:vector(packetBytes) ETV
attr interpolationmode none
attr source packetSentToLower
attr title "packets sent to lower layer, vector(packetBytes)"
vector 343 TARPNetwork.node[18].wlan[0].mac rcvdPkFromLl:vector(packetBytes) ETV
attr interpolationmode none
attr source packetReceivedFromLower
attr title "packets received from lower layer, vector(packetBytes)"
vector 344 TARPNetwork.node[18].wlan[0].mac passedUpPk:vector(packetBytes) ETV
attr interpolationmode none
attr source packetSentToUpper
attr title "packets passed to higher layer, vector(packetBytes)"
vector 345 TARPNetwork.node[18].wlan[0].mac rcvdPkFromHl:vector(packetBytes) ETV
attr interpolationmode none
attr source packetReceivedFromUpper
attr title "packets received from higher layer, vector(packetBytes)"
vector 346 TARPNetwork.node[18].wlan[0].mac.queue packetPushed:vector(packetBytes) ETV
attr interpolationmode none
attr title "packet pushed, vector(packetBytes)"
vector 347 TARPNetwork.node[18].wlan[0].mac.queue queueLength:vector ETV
attr interpolationmode sample-hold
attr source "count(packetPushed) - count(packetPopped) - count(packetRemoved) - count(packetDropped)"
attr title "queue length, vector"
vector 348 TARPNetwork.node[18].wlan[0].mac.queue packetPopped:vector(packetBytes) ETV
attr interpolationmode none
attr title "packet popped, vector(packetBytes)"
vector 349 TARPNetwork.node[18].wlan[0].mac.queue queueingTime:vector ETV
attr interpolationmode none
attr source queueingTime(packetPopped)
attr title "queueing times, vector"
attr unit s
vector 350 TARPNetwork.node[18].wlan[0].mac sentDownPk:vector(packetBytes) ETV
attr interpolationmode none
attr source packetSentToLower
attr title "packets sent to lower layer, vector(packetBytes)"
vector 351 TARPNetwork.node[0].wlan[0].mac rcvdPkFromLl:vector(packetBytes) ETV
attr interpolationmode none
attr source packetReceivedFromLower
attr title "packets received from lower layer, vector(packetBytes)"
vector 352 TARPNetwork.node[0].wlan[0].mac passedUpPk:vector(packetBytes) ETV
attr interpolationmode none
attr source packetSentToUpper
attr title "packets passed to higher layer, vector(packetBytes)"
vector 353 TARPNetwork.node[0].wlan[0].mac rcvdPkFromHl:vector(packetBytes) ETV
attr interpolationmode none
attr source packetReceivedFromUpper
attr title "packets received from higher layer, vector(packetBytes)"
vector 354 TARPNetwork.node[0].wlan[0].mac.queue packetPushed:vector(packetBytes) ETV
attr interpolationmode none
attr title "packet pushed, vector(packetBytes)"
vector 355 TARPNetwork.node[0].wlan[0].mac.queue queueLength:vector ETV
attr interpolationmode sample-hold
attr source "count(packetPushed) - count(packetPopped) - count(packetRemoved) - count(packetDropped)"
attr title "queue length, vector"
vector 356 TARPNetwork.node[0].wlan[0].mac.queue packetPopped:vector(packetBytes) ETV
attr interpolationmode none
attr title "packet popped, vector(packetBytes)"
vector 357 TARPNetwork.node[0].wlan[0].mac.queue queueingTime:vector ETV
attr interpolationmode none
attr source queueingTime(packetPopped)
attr title "queueing times, vector"
attr unit s
vector 358 TARPNetwork.node[0].wlan[0].mac sentDownPk:vector(packetBytes) ETV
attr interpolationmode none
attr source packetSentToLower
attr title "packets sent to lower layer, vector(packetBytes)"
vector 359 TARPNetwork.node[10].wlan[0].mac rcvdPkFromLl:vector(packetBytes) ETV
attr interpolationmode none
attr source packetReceivedFromLower
attr title "packets received from lower layer, vector(packetBytes)"
vector 360 TARPNetwork.node[10].wlan[0].mac passedUpPk:vector(packetBytes) ETV
attr interpolationmode none
attr source packetSentToUpper
attr title "packets passed to higher layer, vector(packetBytes)"
vector 361 TARPNetwork.node[10].wlan[0].mac rcvdPkFromHl:vector(packetBytes) ETV
attr interpolationmode none
attr source packetReceivedFromUpper
attr title "packets received from higher layer, vector(packetBytes)"
vector 362 TARPNetwork.node[10].wlan[0].mac.queue packetPushed:vector(packetBytes) ETV
attr interpolationmode none
attr title "packet pushed, vector(packetBytes)"
vector 363 TARPNetwork.node[10].wlan[0].mac.queue queueLength:vector ETV
attr interpolationmode sample-hold
attr source "count(packetPushed) - count(packetPopped) - count(packetRemoved) - count(packetDropped)"
attr title "queue length, vector"
vector 364 TARPNetwork.node[10].wlan[0].mac.queue packetPopped:vector(packetBytes) ETV
attr interpolationmode none
attr title "packet popped, vector(packetBytes)"
vector 365 TARPNetwork.node[10].wlan[0].mac.queue queueingTime:vector ETV
attr interpolationmode none
attr source queueingTime(packetPopped)
attr title "queueing times, vector"
attr unit s
vector 366 TARPNetwork.node[10].wlan[0].mac sentDownPk:vector(packetBytes) ETV
attr interpolationmode none
attr source packetSentToLower
attr title "packets sent to lower layer, vector(packetBytes)"
vector 367 TARPNetwork.node[2].wlan[0].mac rcvdPkFromLl:vector(packetBytes) ETV
attr interpolationmode none
attr source packetReceivedFromLower
attr title "packets received from lower layer, vector(packetBytes)"
vector 368 TARPNetwork.node[2].wlan[0].mac passedUpPk:vector(packetBytes) ETV
attr interpolationmode none
attr source packetSentToUpper
attr title "packets passed to higher layer, vector(packetBytes)"
vector 369 TARPNetwork.node[2].wlan[0].mac rcvdPkFromHl:vector(packetBytes) ETV
attr interpolationmode none
attr source packetReceivedFromUpper
attr title "packets received from higher layer, vector(packetBytes)"
vector 370 TARPNetwork.node[2].wlan[0].mac.queue packetPushed:vector(packetBytes) ETV
attr interpolationmode none
attr title "packet pushed, vector(packetBytes)"
vector 371 TARPNetwork.node[2].wlan[0].mac.queue queueLength:vector ETV
attr interpolationmode sample-hold
attr source "count(packetPushed) - count(packetPopped) - count(packetRemoved) - count(packetDropped)"
attr title "queue length, vector"
vector 372 TARPNetwork.node[2].wlan[0].mac.queue packetPopped:vector(packetBytes) ETV
attr interpolationmode none
attr title "packet popped, vector(packetBytes)"
vector 373 TARPNetwork.node[2].wlan[0].mac.queue queueingTime:vector ETV
attr interpolationmode none
attr source queueingTime(packetPopped)
attr title "queueing times, vector"
attr unit s
vector 374 TARPNetwork.node[2].wlan[0].mac sentDownPk:vector(packetBytes) ETV
attr interpolationmode none
attr source packetSentToLower
attr title "packets sent to lower layer, vector(packetBytes)"
vector 375 TARPNetwork.node[27].wlan[0].mac rcvdPkFromLl:vector(packetBytes) ETV
attr interpolationmode none
attr source packetReceivedFromLower
attr title "packets received from lower layer, vector(packetBytes)"
vector 376 TARPNetwork.node[27].wlan[0].mac passedUpPk:vector(packetBytes) ETV
attr interpolationmode none
attr source packetSentToUpper
attr title "packets passed to higher layer, vector(packetBytes)"
vector 377 TARPNetwork.node[27].wlan[0].mac rcvdPkFromHl:vector(packetBytes) ETV
attr interpolationmode none
attr source packetReceivedFromUpper
attr title "packets received from higher layer, vector(packetBytes)"
vector 378 TARPNetwork.node[27].wlan[0].mac.queue packetPushed:vector(packetBytes) ETV
attr interpolationmode none
attr title "packet pushed, vector(packetBytes)"
vector 379 TARPNetwork.node[27].wlan[0].mac.queue queueLength:vector ETV
attr interpolationmode sample-hold
attr source "count(packetPushed) - count(packetPopped) - count(packetRemoved) - count(packetDropped)"
attr title "queue length, vector"
vector 380 TARPNetwork.node[27].wlan[0].mac.queue packetPopped:vector(packetBytes) ETV
attr interpolationmode none
attr title "packet popped, vector(packetBytes)"
vector 381 TARPNetwork.node[27].wlan[0].mac.queue queueingTime:vector ETV
attr interpolationmode none
attr source queueingTime(packetPopped)
attr title "queueing times, vector"
attr unit s
vector 382 TARPNetwork.node[27].wlan[0].mac sentDownPk:vector(packetBytes) ETV
attr interpolationmode none
attr source packetSentToLower
attr title "packets sent to lower layer, vector(packetBytes)"
vector 383 TARPNetwork.node[19].wlan[0].mac rcvdPkFromLl:vector(packetBytes) ETV
attr interpolationmode none
attr source packetReceivedFromLower
attr title "packets received from lower layer, vector(packetBytes)"
vector 384 TARPNetwork.node[19].wlan[0].mac passedUpPk:vector(packetBytes) ETV
attr interpolationmode none
attr source packetSentToUpper
attr title "packets passed to higher layer, vector(packetBytes)"
vector 385 TARPNetwork.node[19].wlan[0].mac rcvdPkFromHl:vector(packetBytes) ETV
attr interpolationmode none
attr source packetReceivedFromUpper
attr title "packets received from higher layer, vector(packetBytes)"
vector 386 TARPNetwork.node[19].wlan[0].mac.queue packetPushed:vector(packetBytes) ETV
attr interpolationmode none
attr title "packet pushed, vector(packetBytes)"
vector 387 TARPNetwork.node[19].wlan[0].mac.queue queueLength:vector ETV
attr interpolationmode sample-hold
attr source "count(packetPushed) - count(packetPopped) - count(packetRemoved) - count(packetDropped)"
attr title "queue length, vector"
vector 388 TARPNetwork.node[19].wlan[0].mac.queue packetPopped:vector(packetBytes) ETV
attr interpolationmode none
attr title "packet popped, vector(packetBytes)"
vector 389 TARPNetwork.node[19].wlan[0].mac.queue queueingTime:vector ETV
attr interpolationmode none
attr source queueingTime(packetPopped)
attr title "queueing times, vector"
attr unit s
vector 390 TARPNetwork.node[19].wlan[0].mac sentDownPk:vector(packetBytes) ETV
attr interpolationmode none
attr source packetSentToLower
attr title "packets sent to lower layer, vector(packetBytes)"
vector 391 TARPNetwork.node[11].wlan[0].mac rcvdPkFromLl:vector(packetBytes) ETV
attr interpolationmode none
attr source packetReceivedFromLower
attr title "packets received from lower layer, vector(packetBytes)"
vector 392 TARPNetwork.node[11].wlan[0].mac passedUpPk:vector(packetBytes) ETV
attr interpolationmode none
attr source packetSentToUpper
attr title "packets passed to higher layer, vector(packetBytes)"
vector 393 TARPNetwork.node[11].wlan[0].mac rcvdPkFromHl:vector(packetBytes) ETV
attr interpolationmode none
attr source packetReceivedFromUpper
attr title "packets received from higher layer, vector(packetBytes)"
vector 394 TARPNetwork.node[11].wlan[0].mac.queue packetPushed:vector(packetBytes) ETV
attr interpolationmode none
attr title "packet pushed, vector(packetBytes)"
vector 395 TARPNetwork.node[11].wlan[0].mac.queue queueLength:vector ETV
attr interpolationmode sample-hold
attr source "count(packetPushed) - count(packetPopped) - count(packetRemoved) - count(packetDropped)"
attr title "queue length, vector"
vector 396 TARPNetwork.node[11].wlan[0].mac.queue packetPopped:vector(packetBytes) ETV
attr interpolationmode none
attr title "packet popped, vector(packetBytes)"
vector 397 TARPNetwork.node[11].wlan[0].mac.queue queueingTime:vector ETV
attr interpolationmode none
attr source queueingTime(packetPopped)
attr title "queueing times, vector"
attr unit s
vector 398 TARPNetwork.node[11].wlan[0].mac sentDownPk:vector(packetBytes) ETV
attr interpolationmode none
attr source packetSentToLower
attr title "packets sent to lower layer, vector(packetBytes)"
vector 399 TARPNetwork.node[3].wlan[0].mac rcvdPkFromLl:vector(packetBytes) ETV
attr interpolationmode none
attr source packetReceivedFromLower
attr title "packets received from lower layer, vector(packetBytes)"
vector 400 TARPNetwork.node[3].wlan[0].mac passedUpPk:vector(packetBytes) ETV
attr interpolationmode none
attr source packetSentToUpper
attr title "packets passed to higher layer, vector(packetBytes)"
vector 401 TARPNetwork.node[3].wlan[0].mac rcvdPkFromHl:vector(packetBytes) ETV
attr interpolationmode none
attr source packetReceivedFromUpper
attr title "packets received from higher layer, vector(packetBytes)"
vector 402 TARPNetwork.node[3].wlan[0].mac.queue packetPushed:vector(packetBytes) ETV
attr interpolationmode none
attr title "packet pushed, vector(packetBytes)"
vector 403 TARPNetwork.node[3].wlan[0].mac.queue queueLength:vector ETV
attr interpolationmode sample-hold
attr source "count(packetPushed) - count(packetPopped) - count(packetRemoved) - count(packetDropped)"
attr title "queue length, vector"
vector 404 TARPNetwork.node[3].wlan[0].mac.queue packetPopped:vector(packetBytes) ETV
attr interpolationmode none
attr title "packet popped, vector(packetBytes)"
vector 405 TARPNetwork.node[3].wlan[0].mac.queue queueingTime:vector ETV
attr interpolationmode none
attr source queueingTime(packetPopped)
attr title "queueing times, vector"
attr unit s
vector 406 TARPNetwork.node[3].wlan[0].mac sentDownPk:vector(packetBytes) ETV
attr interpolationmode none
[...]
220	2680309 5989 425 704239 1.00083256468 99.005827535624 198 76 76 15048 1143648
221	2686298 5791 425 704239 1.00083256468 99.005827535624 198 0 0 0 0
222	2692089 5989 425 704239 1.00083256468 99.005827535624 198 92 92 18216 1675872
223	2698078 15221 863 704597 1.001248642668 99.006243654754 495 92 92 45540 4189680
224	2713299 15221 863 704597 1.001248642668 99.006243654754 495 76 76 37620 2859120
225	2728520 6088 867 703727 1.001248642668 99.005411178234 198 76 76 15048 1143648
226	2734608 6088 867 703727 1.001248642668 99.005411178234 198 76 76 15048 1143648
227	2740696 11780 867 703727 1.001248642668 99.005411178234 396 0 1 198 198
228	2752476 6088 867 703727 1.001248642668 99.005411178234 198 76 76 15048 1143648
229	2758564 5890 867 703727 1.001248642668 99.005411178234 198 0 0 0 0
230	2764454 6088 867 703727 1.001248642668 99.005411178234 198 92 92 18216 1675872
231	2770542 15122 880 704227 1.001248751553 99.005827495914 495 92 92 45540 4189680
232	2785664 15122 880 704227 1.001248751553 99.005827495914 495 76 76 37620 2859120
233	2800786 6088 883 703220 1.001248751553 99.004995019394 198 76 76 15048 1143648
234	2806874 6088 883 703220 1.001248751553 99.004995019394 198 76 76 15048 1143648
235	2812962 11780 883 703220 1.001248751553 99.004995019394 396 0 1 198 198
236	2824742 6088 883 703220 1.001248751553 99.004995019394 198 76 76 15048 1143648
237	2830830 5890 883 703220 1.001248751553 99.004995019394 198 0 0 0 0
238	2836720 6088 883 703220 1.001248751553 99.004995019394 198 92 92 18216 1675872
239	2842808 15221 887 704922 1.001248786018 99.006659972434 495 92 92 45540 4189680
240	2858029 15221 887 704922 1.001248786018 99.006659972434 495 76 76 37620 2859120
241	2873250 6088 891 704210 1.001248786018 99.005827416494 198 76 76 15048 1143648
242	2879338 6088 891 704210 1.001248786018 99.005827416494 198 76 76 15048 1143648
243	2885426 11780 891 704210 1.001248786018 99.005827416494 396 0 1 198 198
244	2897206 6088 891 704210 1.001248786018 99.005827416494 198 76 76 15048 1143648
245	2903294 5890 891 704210 1.001248786018 99.005827416494 198 0 0 0 0
246	2909184 6088 891 704210 1.001248786018 99.005827416494 198 92 92 18216 1675872
247	2915272 12177 897 704217 1.001248791263 99.005827456204 396 92 92 36432 3351744
248	2927449 12177 897 704217 1.001248791263 99.005827456204 396 76 76 30096 2287296
249	2939626 6088 901 703206 1.001248791263 99.004994979684 198 76 76 15048 1143648
250	2945714 6088 901 703206 1.001248791263 99.004994979684 198 76 76 15048 1143648
251	2951802 11780 901 703206 1.001248791263 99.004994979684 396 0 1 198 198
252	2963582 6088 901 703206 1.001248791263 99.004994979684 198 76 76 15048 1143648
253	2969670 5890 901 703206 1.001248791263 99.004994979684 198 0 0 0 0
254	2975560 6088 901 703206 1.001248791263 99.004994979684 198 92 92 18216 1675872
255	2981648 12078 906 704631 1.00124880294 99.006243773884 396 92 92 36432 3351744
256	2993726 12078 906 704631 1.00124880294 99.006243773884 396 76 76 30096 2287296
257	3005804 5989 909 703761 1.00124880294 99.005411297364 198 76 76 15048 1143648
258	3011793 5989 909 703761 1.00124880294 99.005411297364 198 76 76 15048 1143648
259	3017782 11582 909 703761 1.00124880294 99.005411297364 396 0 1 198 198
260	3029364 5989 909 703761 1.00124880294 99.005411297364 198 76 76 15048 1143648
261	3035353 5791 909 703761 1.00124880294 99.005411297364 198 0 0 0 0
262	3041144 5989 909 703761 1.00124880294 99.005411297364 198 92 92 18216 1675872
263	3047133 15221 913 704206 1.001248830973 99.005827416494 495 92 92 45540 4189680
264	3062354 15221 913 704206 1.001248830973 99.005827416494 495 76 76 37620 2859120
265	3077575 6088 915 703195 1.001248830973 99.004994939974 198 76 76 15048 1143648
266	3083663 6088 915 703195 1.001248830973 99.004994939974 198 76 76 15048 1143648
267	3089751 11780 915 703195 1.001248830973 99.004994939974 396 0 1 198 198
268	3101531 6088 915 703195 1.001248830973 99.004994939974 198 76 76 15048 1143648
269	3107619 5890 915 703195 1.001248830973 99.004994939974 198 0 0 0 0
270	3113509 6088 915 703195 1.001248830973 99.004994939974 198 92 92 18216 1675872
271	3119597 15222 1362 704198 1.001664920638 99.005827376784 495 92 92 45540 4189680
272	3134819 15222 1362 704198 1.001664920638 99.005827376784 495 76 76 37620 2859120
273	3150041 6089 1366 703182 1.001664920638 99.004994900264 198 76 76 15048 1143648
274	3156130 6089 1366 703182 1.001664920638 99.004994900264 198 76 76 15048 1143648
275	3162219 11782 1366 703182 1.001664920638 99.004994900264 396 0 1 198 198
276	3174001 6089 1366 703182 1.001664920638 99.004994900264 198 76 76 15048 1143648
277	3180090 5891 1366 703182 1.001664920638 99.004994900264 198 0 0 0 0
278	3185981 6089 1366 703182 1.001664920638 99.004994900264 198 92 92 18216 1675872
279	3192070 12178 1371 703745 1.001664989813 99.005411257654 396 92 92 36432 3351744
280	3204248 12178 1371 703745 1.001664989813 99.005411257654 396 76 76 30096 2287296
281	3216426 6089 1374 702729 1.001664989813 99.004578781134 198 76 76 15048 1143648
282	3222515 6089 1374 702729 1.001664989813 99.004578781134 198 76 76 15048 1143648
283	3228604 11782 1374 702729 1.001664989813 99.004578781134 396 0 1 198 198
284	3240386 6089 1374 702729 1.001664989813 99.004578781134 198 76 76 15048 1143648
285	3246475 5891 1374 702729 1.001664989813 99.004578781134 198 0 0 0 0
286	3252366 6089 1374 702729 1.001664989813 99.004578781134 198 92 92 18216 1675872
287	3258455 12178 1387 703734 1.001665029523 99.005411217944 396 92 92 36432 3351744
288	3270633 12178 1387 703734 1.001665029523 99.005411217944 396 76 76 30096 2287296
289	3282811 6089 1393 702721 1.001665029523 99.004578741424 198 76 76 15048 1143648
290	3288900 6089 1393 702721 1.001665029523 99.004578741424 198 76 76 15048 1143648
291	3294989 11782 1393 702721 1.001665029523 99.004578741424 396 0 1 198 198
292	3306771 6089 1393 702721 1.001665029523 99.004578741424 198 76 76 15048 1143648
293	3312860 5891 1393 702721 1.001665029523 99.004578741424 198 0 0 0 0
294	3318751 6089 1393 702721 1.001665029523 99.004578741424 198 92 92 18216 1675872
295	3324840 15222 1400 704603 1.001665063988 99.006243694464 495 92 92 45540 4189680
296	3340062 15222 1400 704603 1.001665063988 99.006243694464 495 76 76 37620 2859120
297	3355284 6089 1404 703714 1.001665063988 99.005411138524 198 76 76 15048 1143648
298	3361373 6089 1404 703714 1.001665063988 99.005411138524 198 76 76 15048 1143648
299	3367462 11782 1404 703714 1.001665063988 99.005411138524 396 0 1 198 198
300	3379244 6089 1404 703714 1.001665063988 99.005411138524 198 76 76 15048 1143648
301	3385333 5891 1404 703714 1.001665063988 99.005411138524 198 0 0 0 0
302	3391224 6089 1404 703714 1.001665063988 99.005411138524 198 92 92 18216 1675872
303	3397313 12178 1410 703723 1.001665069233 99.005411178234 396 92 92 36432 3351744
304	3409491 12178 1410 703723 1.001665069233 99.005411178234 396 76 76 30096 2287296
305	3421669 6089 1412 702707 1.001665069233 99.004578701714 198 76 76 15048 1143648
306	3427758 6089 1412 702707 1.001665069233 99.004578701714 198 76 76 15048 1143648
307	3433847 11782 1412 702707 1.001665069233 99.004578701714 396 0 1 198 198
308	3445629 6089 1412 702707 1.001665069233 99.004578701714 198 76 76 15048 1143648
309	3451718 5891 1412 702707 1.001665069233 99.004578701714 198 0 0 0 0
310	3457609 6089 1412 702707 1.001665069233 99.004578701714 198 92 92 18216 1675872
311	3463698 15222 1419 703711 1.001665108943 99.005411138524 495 92 92 45540 4189680
312	3478920 15222 1419 703711 1.001665108943 99.005411138524 495 76 76 37620 2859120
313	3494142 6089 1421 702693 1.001665108943 99.004578662004 198 76 76 15048 1143648
314	3500231 6089 1421 702693 1.001665108943 99.004578662004 198 76 76 15048 1143648
315	3506320 11782 1421 702693 1.001665108943 99.004578662004 396 0 1 198 198
316	3518102 6089 1421 702693 1.001665108943 99.004578662004 198 76 76 15048 1143648
317	3524191 5891 1421 702693 1.001665108943 99.004578662004 198 0 0 0 0
318	3530082 6089 1421 702693 1.001665108943 99.004578662004 198 92 92 18216 1675872
319	3536171 12178 1904 703721 1.002081198608 99.005411178234 396 92 92 36432 3351744
320	3548349 12178 1904 703721 1.002081198608 99.005411178234 396 76 76 30096 2287296
321	3560527 6089 1908 702754 1.002081198608 99.004578901696 198 76 76 15048 1143648
322	3566616 6089 1908 702754 1.002081198608 99.004578901696 198 76 76 15048 1143648
323	3572705 11782 1908 702754 1.002081198608 99.004578901696 396 0 1 198 198
324	3584487 6089 1908 702754 1.002081198608 99.004578901696 198 76 76 15048 1143648
325	3590576 5891 1908 702754 1.002081198608 99.004578901696 198 0 0 0 0
326	3596467 6089 1908 702754 1.002081198608 99.004578901696 198 92 92 18216 1675872
327	3602556 9134 1913 703216 1.002081228073 99.004995019394 297 92 92 27324 2513808
328	3611690 9134 1913 703216 1.002081228073 99.004995019394 297 76 76 22572 1715472
329	3620824 6089 1916 703221 1.002081228073 99.004995019394 198 76 76 15048 1143648
330	3626913 6089 1916 703221 1.002081228073 99.004995019394 198 76 76 15048 1143648
331	3633002 11782 1916 703221 1.002081228073 99.004995019394 396 0 1 198 198
332	3644784 6089 1916 703221 1.002081228073 99.004995019394 198 76 76 15048 1143648
333	3650873 5891 1916 703221 1.002081228073 99.004995019394 198 0 0 0 0
334	3656764 6089 1916 703221 1.002081228073 99.004995019394 198 92 92 18216 1675872
335	3662853 12179 1921 703203 1.002081267783 99.004994979684 396 92 92 36432 3351744
336	3675032 12179 1921 703203 1.002081267783 99.004994979684 396 76 76 30096 2287296
337	3687211 6089 1925 702321 1.002081267783 99.004162503164 198 76 76 15048 1143648
338	3693300 6089 1925 702321 1.002081267783 99.004162503164 198 76 76 15048 1143648
339	3699389 11782 1925 702321 1.002081267783 99.004162503164 396 0 1 198 198
340	3711171 6089 1925 702321 1.002081267783 99.004162503164 198 76 76 15048 1143648
341	3717260 5891 1925 702321 1.002081267783 99.004162503164 198 0 0 0 0
342	3723151 6089 1925 702321 1.002081267783 99.004162503164 198 92 92 18216 1675872
343	3729240 12179 1938 703191 1.002081307493 99.004994939974 396 92 92 36432 3351744
344	3741419 12179 1938 703191 1.002081307493 99.004994939974 396 76 76 30096 2287296
345	3753598 6089 1942 702313 1.002081307493 99.004162463454 198 76 76 15048 1143648
346	3759687 6089 1942 702313 1.002081307493 99.004162463454 198 76 76 15048 1143648
347	3765776 11782 1942 702313 1.002081307493 99.004162463454 396 0 1 198 198
348	3777558 6089 1942 702313 1.002081307493 99.004162463454 198 76 76 15048 1143648
349	3783647 5891 1942 702313 1.002081307493 99.004162463454 198 0 0 0 0
350	3789538 6089 1942 702313 1.002081307493 99.004162463454 198 92 92 18216 1675872
351	3795627 12178 1946 704204 1.002081341958 99.005827416494 396 92 92 36432 3351744
352	3807805 12178 1946 704204 1.002081341958 99.005827416494 396 76 76 30096 2287296
353	3819983 6089 1950 703247 1.002081341958 99.004995139956 198 76 76 15048 1143648
354	3826072 6089 1950 703247 1.002081341958 99.004995139956 198 76 76 15048 1143648
355	3832161 11782 1950 703247 1.002081341958 99.004995139956 396 0 1 198 198
356	3843943 6089 1950 703247 1.002081341958 99.004995139956 198 76 76 15048 1143648
357	3850032 5891 1950 703247 1.002081341958 99.004995139956 198 0 0 0 0
358	3855923 6089 1950 703247 1.002081341958 99.004995139956 198 92 92 18216 1675872
359	3862012 12179 1956 703179 1.002081347203 99.004994900264 396 92 92 36432 3351744
360	3874191 12179 1956 703179 1.002081347203 99.004994900264 396 76 76 30096 2287296
361	3886370 6089 1958 702295 1.002081347203 99.004162423744 198 76 76 15048 1143648
362	3892459 6089 1958 702295 1.002081347203 99.004162423744 198 76 76 15048 1143648
363	3898548 11782 1958 702295 1.002081347203 99.004162423744 396 0 1 198 198
364	3910330 6089 1958 702295 1.002081347203 99.004162423744 198 76 76 15048 1143648
365	3916419 5891 1958 702295 1.002081347203 99.004162423744 198 0 0 0 0
366	3922310 6089 1958 702295 1.002081347203 99.004162423744 198 92 92 18216 1675872
367	3928399 15223 1965 703189 1.002081386913 99.004994939974 495 92 92 45540 4189680
368	3943622 15223 1965 703189 1.002081386913 99.004994939974 495 76 76 37620 2859120
369	3958845 6089 1967 702343 1.002081386913 99.004162663436 198 76 76 15048 1143648
370	3964934 6089 1967 702343 1.002081386913 99.004162663436 198 76 76 15048 1143648
371	3971023 11782 1967 702343 1.002081386913 99.004162663436 396 0 1 198 198
372	3982805 6089 1967 702343 1.002081386913 99.004162663436 198 76 76 15048 1143648
373	3988894 5891 1967 702343 1.002081386913 99.004162663436 198 0 0 0 0
374	3994785 6089 1967 702343 1.002081386913 99.004162663436 198 92 92 18216 1675872
375	4000874 12179 2495 703758 1.002497506043 99.005411297364 396 92 92 36432 3351744
376	4013053 12179 2495 703758 1.002497506043 99.005411297364 396 76 76 30096 2287296
377	4025232 6089 2499 702722 1.002497506043 99.004578741424 198 76 76 15048 1143648
378	4031321 6089 2499 702722 1.002497506043 99.004578741424 198 76 76 15048 1143648
379	4037410 11782 2499 702722 1.002497506043 99.004578741424 396 0 1 198 198
380	4049192 6089 2499 702722 1.002497506043 99.004578741424 198 76 76 15048 1143648
381	4055281 5891 2499 702722 1.002497506043 99.004578741424 198 0 0 0 0
382	4061172 6089 2499 702722 1.002497506043 99.004578741424 198 92 92 18216 1675872
383	4067261 12179 2505 702703 1.002497545753 99.004578701714 396 92 92 36432 3351744
384	4079440 12179 2505 702703 1.002497545753 99.004578701714 396 76 76 30096 2287296
385	4091619 6089 2509 701904 1.002497545753 99.003746225194 198 76 76 15048 1143648
386	4097708 6089 2509 701904 1.002497545753 99.003746225194 198 76 76 15048 1143648
387	4103797 11782 2509 701904 1.002497545753 99.003746225194 396 0 1 198 198
388	4115579 6089 2509 701904 1.002497545753 99.003746225194 198 76 76 15048 1143648
389	4121668 5891 2509 701904 1.002497545753 99.003746225194 198 0 0 0 0
390	4127559 6089 2509 701904 1.002497545753 99.003746225194 198 92 92 18216 1675872
391	4133648 12179 2520 702690 1.002497585463 99.004578662004 396 92 92 36432 3351744
392	4145827 12179 2520 702690 1.002497585463 99.004578662004 396 76 76 30096 2287296
393	4158006 6089 2524 701893 1.002497585463 99.003746185484 198 76 76 15048 1143648
394	4164095 6089 2524 701893 1.002497585463 99.003746185484 198 76 76 15048 1143648
395	4170184 11782 2524 701893 1.002497585463 99.003746185484 396 0 1 198 198
396	4181966 6089 2524 701893 1.002497585463 99.003746185484 198 76 76 15048 1143648
397	4188055 5891 2524 701893 1.002497585463 99.003746185484 198 0 0 0 0
398	4193946 6089 2524 701893 1.002497585463 99.003746185484 198 92 92 18216 1675872
399	4200035 12179 2534 702701 1.002497625173 99.004578701714 396 92 92 36432 3351744
400	4212214 12179 2534 702701 1.002497625173 99.004578701714 396 76 76 30096 2287296
401	4224393 6089 2536 701938 1.002497625173 99.003746425176 198 76 76 15048 1143648
402	4230482 6089 2536 701938 1.002497625173 99.003746425176 198 76 76 15048 1143648
403	4236571 11782 2536 701938 1.002497625173 99.003746425176 396 0 1 198 198
404	4248353 6089 2536 701938 1.002497625173 99.003746425176 198 76 76 15048 1143648
405	4254442 5891 2536 701938 1.002497625173 99.003746425176 198 0 0 0 0
406	4260333 6089 2536 701938 1.002497625173 99.003746425176 198 92 92 18216 1675872
407	4266422 12180 2976 703215 1.002913784013 99.004995019394 396 92 92 36432 3351744
408	4278602 12180 2976 703215 1.002913784013 99.004995019394 396 76 76 30096 2287296
409	4290782 6090 2982 702314 1.002913784013 99.004162463454 198 76 76 15048 1143648
410	4296872 6090 2982 702314 1.002913784013 99.004162463454 198 76 76 15048 1143648
411	4302962 11784 2982 702314 1.002913784013 99.004162463454 396 0 1 198 198
412	4314746 6090 2982 702314 1.002913784013 99.004162463454 198 76 76 15048 1143648
413	4320836 5892 2982 702314 1.002913784013 99.004162463454 198 0 0 0 0
414	4326728 6090 2982 702314 1.002913784013 99.004162463454 198 92 92 18216 1675872
415	4332818 12180 2988 702292 1.002913823723 99.004162423744 396 92 92 36432 3351744
416	4344998 12180 2988 702292 1.002913823723 99.004162423744 396 76 76 30096 2287296
417	4357178 6090 2992 701487 1.002913823723 99.003329947224 198 76 76 15048 1143648
418	4363268 6090 2992 701487 1.002913823723 99.003329947224 198 76 76 15048 1143648
419	4369358 11784 2992 701487 1.002913823723 99.003329947224 396 0 1 198 198
420	4381142 6090 2992 701487 1.002913823723 99.003329947224 198 76 76 15048 1143648
421	4387232 5892 2992 701487 1.002913823723 99.003329947224 198 0 0 0 0
422	4393124 6090 2992 701487 1.002913823723 99.003329947224 198 92 92 18216 1675872
423	4399214 12180 2995 702286 1.002913860496 99.004162415562 396 92 92 36432 3351744
424	4411394 12180 2995 702286 1.002913860496 99.004162415562 396 76 76 30096 2287296
425	4423574 3045 2999 701151 1.002913860496 99.002913860496 99 76 76 7524 571824
426	4426619 3045 2999 701151 1.002913860496 99.002913860496 99 76 76 7524 571824
427	4429664 5892 2999 701151 1.002913860496 99.002913860496 198 0 1 99 99
428	4435556 3045 2999 701151 1.002913860496 99.002913860496 99 76 76 7524 571824
429	4438601 2946 2999 701151 1.002913860496 99.002913860496 99 0 0 0 0
430	4441547 3045 2999 701151 1.002913860496 99.002913860496 99 92 92 9108 837936
431	4444592 12180 3005 702305 1.002913863433 99.004162463454 396 92 92 36432 3351744
432	4456772 12180 3005 702305 1.002913863433 99.004162463454 396 76 76 30096 2287296
433	4468952 6090 3009 701531 1.002913863433 99.003330186916 198 76 76 15048 1143648
434	4475042 6090 3009 701531 1.002913863433 99.003330186916 198 76 76 15048 1143648
435	4481132 11784 3009 701531 1.002913863433 99.003330186916 396 0 1 198 198
436	4492916 6090 3009 701531 1.002913863433 99.003330186916 198 76 76 15048 1143648
437	4499006 5892 3009 701531 1.002913863433 99.003330186916 198 0 0 0 0
438	4504898 6090 3009 701531 1.002913863433 99.003330186916 198 92 92 18216 1675872
439	4510988 6090 3342 701900 1.003330056528 99.003746225194 198 92 92 18216 1675872
440	4517078 6090 3342 701900 1.003330056528 99.003746225194 198 76 76 15048 1143648
441	4523168 3045 3344 701496 1.003330056528 99.003330056528 99 76 76 7524 571824
442	4526213 3045 3344 701496 1.003330056528 99.003330056528 99 76 76 7524 571824
443	4529258 5892 3344 701496 1.003330056528 99.003330056528 198 0 1 99 99
444	4535150 3045 3344 701496 1.003330056528 99.003330056528 99 76 76 7524 571824
445	4538195 2946 3344 701496 1.003330056528 99.003330056528 99 0 0 0 0
446	4541141 3045 3344 701496 1.003330056528 99.003330056528 99 92 92 9108 837936
447	4544186 9135 3350 702716 1.003330061983 99.004578741424 297 92 92 27324 2513808
448	4553321 9135 3350 702716 1.003330061983 99.004578741424 297 76 76 22572 1715472
449	4562456 6090 3356 701894 1.003330061983 99.003746185484 198 76 76 15048 1143648
450	4568546 6090 3356 701894 1.003330061983 99.003746185484 198 76 76 15048 1143648
451	4574636 11784 3356 701894 1.003330061983 99.003746185484 396 0 1 198 198
452	4586420 6090 3356 701894 1.003330061983 99.003746185484 198 76 76 15048 1143648
453	4592510 5892 3356 701894 1.003330061983 99.003746185484 198 0 0 0 0
454	4598402 6090 3356 701894 1.003330061983 99.003746185484 198 92 92 18216 1675872
455	4604492 9135 3368 702307 1.003330150053 99.004162463454 297 92 92 27324 2513808
456	4613627 9135 3368 702307 1.003330150053 99.004162463454 297 76 76 22572 1715472
457	4622762 3045 3370 701522 1.003330150053 99.003330150053 99 76 76 7524 571824
458	4625807 3045 3370 701522 1.003330150053 99.003330150053 99 76 76 7524 571824
459	4628852 5892 3370 701522 1.003330150053 99.003330150053 198 0 1 99 99
460	4634744 3045 3370 701522 1.003330150053 99.003330150053 99 76 76 7524 571824
461	4637789 2946 3370 701522 1.003330150053 99.003330150053 99 0 0 0 0
462	4640735 3045 3370 701522 1.003330150053 99.003330150053 99 92 92 9108 837936
463	4643780 3035 6472 704624 1.006243770947 99.006243770947 99 0 98 4851 318549
464	4646815 4233 6472 704624 1.006243770947 99.006243770947 99 0.006243770947 0.006243770947 0.618133323753 0.0038594828882215

