file 13386003 1631903422                                        
version 2
run Static-0-20210917-23:58:19-13184
attr configname Static
attr datetime 20210917-23:58:19
attr experiment Static
attr inifile omnetpp.ini
attr iterationvars ""
attr iterationvarsf ""
attr measurement ""
attr network TARPNetwork
attr processid 13184
attr repetition 0
attr replication #0
attr resultdir results
attr runnumber 0
attr seedset 0
param **.node[*].mobility.typename "\"StationaryMobility\""
param **.mobility.constraintAreaMinZ 0m
param **.mobility.constraintAreaMaxZ 0m
param **.mobility.constraintAreaMinX 0m
param **.mobility.constraintAreaMinY 0m
param **.mobility.constraintAreaMaxX 500m
param **.mobility.constraintAreaMaxY 500m
param **.numNodes 60
param *.node*.typename "\"Node\""
param *.nodeA.numApps 1
param *.nodeA.app[0].typename "\"PingApp\""
param *.nodeA.app[0].destAddr "\"nodeB\""
param *.nodeA.app[0].startTime 1s
param *.nodeA.app[0].sendInterval 1s
param **.wlan[*].typename "\"AckingWirelessInterface\""
param **.bitrate 2Mbps
param **.wlan[*].radio.transmitter.communicationRange 100m
param **.wlan[*].radio.transmitter.interferenceRange 0m
param **.wlan[*].radio.transmitter.detectionRange 0m
param **.wlan[*].radio.receiver.ignoreInterference true
param *.nodeA.wlan[0].radio.displayCommunicationRange true
param *.nodeB.wlan[0].radio.displayCommunicationRange true
param *.visualizer.physicalLinkVisualizer.displayLinks false
param *.visualizer.dataLinkVisualizer.displayLinks true
param *.visualizer.networkRouteVisualizer.displayRoutes false
param *.visualizer.*LinkVisualizer.lineShift 0
param *.visualizer.networkRouteVisualizer.lineShift 0
param *.visualizer.networkRouteVisualizer.packetFilter "\"TARP*\""
param **.hasIpv4 false
param **.hasIpv6 false
param **.hasGn true
param **.forwarding true
param **.generic.typename "\"SimpleNetworkLayer\""
param **.generic.np.typename "\"TarpF\""
param **.app[*].networkProtocol "\"tarpf\""
param **.plainFlooding true
param **.ddMaxEntries 100
param **.ddDelTime 100s
param **.spdRule true
param **.spdDelTime 100s

vector 0 TARPNetwork.node[0].wlan[0].radio radioMode:vector ETV
attr interpolationmode sample-hold
attr source radioModeChanged
attr title "Radio mode, vector"
vector 1 TARPNetwork.node[1].wlan[0].radio radioMode:vector ETV
attr interpolationmode sample-hold
attr source radioModeChanged
attr title "Radio mode, vector"
vector 2 TARPNetwork.node[2].wlan[0].radio radioMode:vector ETV
attr interpolationmode sample-hold
attr source radioModeChanged
attr title "Radio mode, vector"
vector 3 TARPNetwork.node[3].wlan[0].radio radioMode:vector ETV
attr interpolationmode sample-hold
attr source radioModeChanged
attr title "Radio mode, vector"
vector 4 TARPNetwork.node[4].wlan[0].radio radioMode:vector ETV
attr interpolationmode sample-hold
attr source radioModeChanged
attr title "Radio mode, vector"
vector 5 TARPNetwork.node[5].wlan[0].radio radioMode:vector ETV
attr interpolationmode sample-hold
attr source radioModeChanged
attr title "Radio mode, vector"
vector 6 TARPNetwork.node[6].wlan[0].radio radioMode:vector ETV
attr interpolationmode sample-hold
attr source radioModeChanged
attr title "Radio mode, vector"
vector 7 TARPNetwork.node[7].wlan[0].radio radioMode:vector ETV
attr interpolationmode sample-hold
attr source radioModeChanged
attr title "Radio mode, vector"
vector 8 TARPNetwork.node[8].wlan[0].radio radioMode:vector ETV
attr interpolationmode sample-hold
attr source radioModeChanged
attr title "Radio mode, vector"
vector 9 TARPNetwork.node[9].wlan[0].radio radioMode:vector ETV
attr interpolationmode sample-hold
attr source radioModeChanged
attr title "Radio mode, vector"
vector 10 TARPNetwork.node[10].wlan[0].radio radioMode:vector ETV
attr interpolationmode sample-hold
attr source radioModeChanged
attr title "Radio mode, vector"
vector 11 TARPNetwork.node[11].wlan[0].radio radioMode:vector ETV
attr interpolationmode sample-hold
attr source radioModeChanged
attr title "Radio mode, vector"
vector 12 TARPNetwork.node[12].wlan[0].radio radioMode:vector ETV
attr interpolationmode sample-hold
attr source radioModeChanged
attr title "Radio mode, vector"
vector 13 TARPNetwork.node[13].wlan[0].radio radioMode:vector ETV
attr interpolationmode sample-hold
attr source radioModeChanged
attr title "Radio mode, vector"
vector 14 TARPNetwork.node[14].wlan[0].radio radioMode:vector ETV
attr interpolationmode sample-hold
attr source radioModeChanged
attr title "Radio mode, vector"
vector 15 TARPNetwork.node[15].wlan[0].radio radioMode:vector ETV
attr interpolationmode sample-hold
attr source radioModeChanged
attr title "Radio mode, vector"
vector 16 TARPNetwork.node[16].wlan[0].radio radioMode:vector ETV
attr interpolationmode sample-hold
attr source radioModeChanged
attr title "Radio mode, vector"
vector 17 TARPNetwork.node[17].wlan[0].radio radioMode:vector ETV
attr interpolationmode sample-hold
attr source radioModeChanged
attr title "Radio mode, vector"
vector 18 TARPNetwork.node[18].wlan[0].radio radioMode:vector ETV
attr interpolationmode sample-hold
attr source radioModeChanged
attr title "Radio mode, vector"
vector 19 TARPNetwork.node[19].wlan[0].radio radioMode:vector ETV
attr interpolationmode sample-hold
attr source radioModeChanged
attr title "Radio mode, vector"
vector 20 TARPNetwork.node[20].wlan[0].radio radioMode:vector ETV
attr interpolationmode sample-hold
attr source radioModeChanged
attr title "Radio mode, vector"
vector 21 TARPNetwork.node[21].wlan[0].radio radioMode:vector ETV
attr interpolationmode sample-hold
attr source radioModeChanged
attr title "Radio mode, vector"
vector 22 TARPNetwork.node[22].wlan[0].radio radioMode:vector ETV
attr interpolationmode sample-hold
attr source radioModeChanged
attr title "Radio mode, vector"
vector 23 TARPNetwork.node[23].wlan[0].radio radioMode:vector ETV
attr interpolationmode sample-hold
attr source radioModeChanged
attr title "Radio mode, vector"
vector 24 TARPNetwork.node[24].wlan[0].radio radioMode:vector ETV
attr interpolationmode sample-hold
attr source radioModeChanged
attr title "Radio mode, vector"
vector 25 TARPNetwork.node[25].wlan[0].radio radioMode:vector ETV
attr interpolationmode sample-hold
attr source radioModeChanged
attr title "Radio mode, vector"
vector 26 TARPNetwork.node[26].wlan[0].radio radioMode:vector ETV
attr interpolationmode sample-hold
attr source radioModeChanged
attr title "Radio mode, vector"
vector 27 TARPNetwork.node[27].wlan[0].radio radioMode:vector ETV
attr interpolationmode sample-hold
attr source radioModeChanged
attr title "Radio mode, vector"
vector 28 TARPNetwork.node[28].wlan[0].radio radioMode:vector ETV
attr interpolationmode sample-hold
attr source radioModeChanged
attr title "Radio mode, vector"
vector 29 TARPNetwork.node[29].wlan[0].radio radioMode:vector ETV
attr interpolationmode sample-hold
attr source radioModeChanged
attr title "Radio mode, vector"
vector 30 TARPNetwork.node[30].wlan[0].radio radioMode:vector ETV
attr interpolationmode sample-hold
attr source radioModeChanged
attr title "Radio mode, vector"
vector 31 TARPNetwork.node[31].wlan[0].radio radioMode:vector ETV
attr interpolationmode sample-hold
attr source radioModeChanged
attr title "Radio mode, vector"
vector 32 TARPNetwork.node[32].wlan[0].radio radioMode:vector ETV
attr interpolationmode sample-hold
attr source radioModeChanged
attr title "Radio mode, vector"
vector 33 TARPNetwork.node[33].wlan[0].radio radioMode:vector ETV
attr interpolationmode sample-hold
attr source radioModeChanged
attr title "Radio mode, vector"
vector 34 TARPNetwork.node[34].wlan[0].radio radioMode:vector ETV
attr interpolationmode sample-hold
attr source radioModeChanged
attr title "Radio mode, vector"
vector 35 TARPNetwork.node[35].wlan[0].radio radioMode:vector ETV
attr interpolationmode sample-hold
attr source radioModeChanged
attr title "Radio mode, vector"
vector 36 TARPNetwork.node[36].wlan[0].radio radioMode:vector ETV
attr interpolationmode sample-hold
attr source radioModeChanged
attr title "Radio mode, vector"
vector 37 TARPNetwork.node[37].wlan[0].radio radioMode:vector ETV
attr interpolationmode sample-hold
attr source radioModeChanged
attr title "Radio mode, vector"
vector 38 TARPNetwork.node[38].wlan[0].radio radioMode:vector ETV
attr interpolationmode sample-hold
attr source radioModeChanged
attr title "Radio mode, vector"
vector 39 TARPNetwork.node[39].wlan[0].radio radioMode:vector ETV
attr interpolationmode sample-hold
attr source radioModeChanged
attr title "Radio mode, vector"
vector 40 TARPNetwork.node[40].wlan[0].radio radioMode:vector ETV
attr interpolationmode sample-hold
attr source radioModeChanged
attr title "Radio mode, vector"
vector 41 TARPNetwork.node[41].wlan[0].radio radioMode:vector ETV
attr interpolationmode sample-hold
attr source radioModeChanged
attr title "Radio mode, vector"
vector 42 TARPNetwork.node[42].wlan[0].radio radioMode:vector ETV
attr interpolationmode sample-hold
attr source radioModeChanged
attr title "Radio mode, vector"
vector 43 TARPNetwork.node[43].wlan[0].radio radioMode:vector ETV
attr interpolationmode sample-hold
attr source radioModeChanged
attr title "Radio mode, vector"
vector 44 TARPNetwork.node[44].wlan[0].radio radioMode:vector ETV
attr interpolationmode sample-hold
attr source radioModeChanged
attr title "Radio mode, vector"
vector 45 TARPNetwork.node[45].wlan[0].radio radioMode:vector ETV
attr interpolationmode sample-hold
attr source radioModeChanged
attr title "Radio mode, vector"
vector 46 TARPNetwork.node[46].wlan[0].radio radioMode:vector ETV
attr interpolationmode sample-hold
attr source radioModeChanged
attr title "Radio mode, vector"
vector 47 TARPNetwork.node[47].wlan[0].radio radioMode:vector ETV
attr interpolationmode sample-hold
attr source radioModeChanged
attr title "Radio mode, vector"
vector 48 TARPNetwork.node[48].wlan[0].radio radioMode:vector ETV
attr interpolationmode sample-hold
attr source radioModeChanged
attr title "Radio mode, vector"
vector 49 TARPNetwork.node[49].wlan[0].radio radioMode:vector ETV
attr interpolationmode sample-hold
attr source radioModeChanged
attr title "Radio mode, vector"
vector 50 TARPNetwork.node[50].wlan[0].radio radioMode:vector ETV
attr interpolationmode sample-hold
attr source radioModeChanged
attr title "Radio mode, vector"
vector 51 TARPNetwork.node[51].wlan[0].radio radioMode:vector ETV
attr interpolationmode sample-hold
attr source radioModeChanged
attr title "Radio mode, vector"
vector 52 TARPNetwork.node[52].wlan[0].radio radioMode:vector ETV
attr interpolationmode sample-hold
attr source radioModeChanged
attr title "Radio mode, vector"
vector 53 TARPNetwork.node[53].wlan[0].radio radioMode:vector ETV
attr interpolationmode sample-hold
attr source radioModeChanged
attr title "Radio mode, vector"
vector 54 TARPNetwork.node[54].wlan[0].radio radioMode:vector ETV
attr interpolationmode sample-hold
attr source radioModeChanged
attr title "Radio mode, vector"
vector 55 TARPNetwork.node[55].wlan[0].radio radioMode:vector ETV
attr interpolationmode sample-hold
attr source radioModeChanged
attr title "Radio mode, vector"
vector 56 TARPNetwork.node[56].wlan[0].radio radioMode:vector ETV
attr interpolationmode sample-hold
attr source radioModeChanged
attr title "Radio mode, vector"
vector 57 TARPNetwork.node[57].wlan[0].radio radioMode:vector ETV
attr interpolationmode sample-hold
attr source radioModeChanged
attr title "Radio mode, vector"
vector 58 TARPNetwork.node[58].wlan[0].radio radioMode:vector ETV
attr interpolationmode sample-hold
attr source radioModeChanged
attr title "Radio mode, vector"
vector 59 TARPNetwork.node[59].wlan[0].radio radioMode:vector ETV
attr interpolationmode sample-hold
attr source radioModeChanged
attr title "Radio mode, vector"
vector 60 TARPNetwork.nodeA.wlan[0].radio radioMode:vector ETV
attr interpolationmode sample-hold
attr source radioModeChanged
attr title "Radio mode, vector"
vector 61 TARPNetwork.nodeB.wlan[0].radio radioMode:vector ETV
attr interpolationmode sample-hold
attr source radioModeChanged
attr title "Radio mode, vector"
vector 62 TARPNetwork.node[0].wlan[0].radio receptionState:vector ETV
attr interpolationmode sample-hold
attr source receptionStateChanged
attr title "Radio reception state, vector"
vector 63 TARPNetwork.node[0].wlan[0].radio transmissionState:vector ETV
attr interpolationmode sample-hold
attr source transmissionStateChanged
attr title "Radio transmission state, vector"
vector 64 TARPNetwork.node[1].wlan[0].radio receptionState:vector ETV
attr interpolationmode sample-hold
attr source receptionStateChanged
attr title "Radio reception state, vector"
vector 65 TARPNetwork.node[1].wlan[0].radio transmissionState:vector ETV
attr interpolationmode sample-hold
attr source transmissionStateChanged
attr title "Radio transmission state, vector"
vector 66 TARPNetwork.node[2].wlan[0].radio receptionState:vector ETV
attr interpolationmode sample-hold
attr source receptionStateChanged
attr title "Radio reception state, vector"
vector 67 TARPNetwork.node[2].wlan[0].radio transmissionState:vector ETV
attr interpolationmode sample-hold
attr source transmissionStateChanged
attr title "Radio transmission state, vector"
vector 68 TARPNetwork.node[3].wlan[0].radio receptionState:vector ETV
attr interpolationmode sample-hold
attr source receptionStateChanged
attr title "Radio reception state, vector"
vector 69 TARPNetwork.node[3].wlan[0].radio transmissionState:vector ETV
attr interpolationmode sample-hold
attr source transmissionStateChanged
attr title "Radio transmission state, vector"
vector 70 TARPNetwork.node[4].wlan[0].radio receptionState:vector ETV
attr interpolationmode sample-hold
attr source receptionStateChanged
attr title "Radio reception state, vector"
vector 71 TARPNetwork.node[4].wlan[0].radio transmissionState:vector ETV
attr interpolationmode sample-hold
attr source transmissionStateChanged
attr title "Radio transmission state, vector"
vector 72 TARPNetwork.node[5].wlan[0].radio receptionState:vector ETV
attr interpolationmode sample-hold
attr source receptionStateChanged
attr title "Radio reception state, vector"
vector 73 TARPNetwork.node[5].wlan[0].radio transmissionState:vector ETV
attr interpolationmode sample-hold
attr source transmissionStateChanged
attr title "Radio transmission state, vector"
vector 74 TARPNetwork.node[6].wlan[0].radio receptionState:vector ETV
attr interpolationmode sample-hold
attr source receptionStateChanged
attr title "Radio reception state, vector"
vector 75 TARPNetwork.node[6].wlan[0].radio transmissionState:vector ETV
attr interpolationmode sample-hold
attr source transmissionStateChanged
attr title "Radio transmission state, vector"
vector 76 TARPNetwork.node[7].wlan[0].radio receptionState:vector ETV
attr interpolationmode sample-hold
attr source receptionStateChanged
attr title "Radio reception state, vector"
vector 77 TARPNetwork.node[7].wlan[0].radio transmissionState:vector ETV
attr interpolationmode sample-hold
attr source transmissionStateChanged
attr title "Radio transmission state, vector"
vector 78 TARPNetwork.node[8].wlan[0].radio receptionState:vector ETV
attr interpolationmode sample-hold
attr source receptionStateChanged
attr title "Radio reception state, vector"
vector 79 TARPNetwork.node[8].wlan[0].radio transmissionState:vector ETV
attr interpolationmode sample-hold
attr source transmissionStateChanged
attr title "Radio transmission state, vector"
vector 80 TARPNetwork.node[9].wlan[0].radio receptionState:vector ETV
attr interpolationmode sample-hold
attr source receptionStateChanged
attr title "Radio reception state, vector"
vector 81 TARPNetwork.node[9].wlan[0].radio transmissionState:vector ETV
attr interpolationmode sample-hold
attr source transmissionStateChanged
attr title "Radio transmission state, vector"
vector 82 TARPNetwork.node[10].wlan[0].radio receptionState:vector ETV
attr interpolationmode sample-hold
attr source receptionStateChanged
attr title "Radio reception state, vector"
vector 83 TARPNetwork.node[10].wlan[0].radio transmissionState:vector ETV
attr interpolationmode sample-hold
attr source transmissionStateChanged
attr title "Radio transmission state, vector"
vector 84 TARPNetwork.node[11].wlan[0].radio receptionState:vector ETV
attr interpolationmode sample-hold
attr source receptionStateChanged
attr title "Radio reception state, vector"
vector 85 TARPNetwork.node[11].wlan[0].radio transmissionState:vector ETV
attr interpolationmode sample-hold
attr source transmissionStateChanged
attr title "Radio transmission state, vector"
vector 86 TARPNetwork.node[12].wlan[0].radio receptionState:vector ETV
attr interpolationmode sample-hold
attr source receptionStateChanged
attr title "Radio reception state, vector"
vector 87 TARPNetwork.node[12].wlan[0].radio transmissionState:vector ETV
attr interpolationmode sample-hold
attr source transmissionStateChanged
attr title "Radio transmission state, vector"
vector 88 TARPNetwork.node[13].wlan[0].radio receptionState:vector ETV
attr interpolationmode sample-hold
attr source receptionStateChanged
attr title "Radio reception state, vector"
vector 89 TARPNetwork.node[13].wlan[0].radio transmissionState:vector ETV
attr interpolationmode sample-hold
attr source transmissionStateChanged
attr title "Radio transmission state, vector"
vector 90 TARPNetwork.node[14].wlan[0].radio receptionState:vector ETV
attr interpolationmode sample-hold
attr source receptionStateChanged
attr title "Radio reception state, vector"
vector 91 TARPNetwork.node[14].wlan[0].radio transmissionState:vector ETV
attr interpolationmode sample-hold
attr source transmissionStateChanged
attr title "Radio transmission state, vector"
vector 92 TARPNetwork.node[15].wlan[0].radio receptionState:vector ETV
attr interpolationmode sample-hold
attr source receptionStateChanged
attr title "Radio reception state, vector"
vector 93 TARPNetwork.node[15].wlan[0].radio transmissionState:vector ETV
attr interpolationmode sample-hold
attr source transmissionStateChanged
attr title "Radio transmission state, vector"
vector 94 TARPNetwork.node[16].wlan[0].radio receptionState:vector ETV
attr interpolationmode sample-hold
attr source receptionStateChanged
attr title "Radio reception state, vector"
vector 95 TARPNetwork.node[16].wlan[0].radio transmissionState:vector ETV
attr interpolationmode sample-hold
attr source transmissionStateChanged
attr title "Radio transmission state, vector"
vector 96 TARPNetwork.node[17].wlan[0].radio receptionState:vector ETV
attr interpolationmode sample-hold
attr source receptionStateChanged
attr title "Radio reception state, vector"
vector 97 TARPNetwork.node[17].wlan[0].radio transmissionState:vector ETV
attr interpolationmode sample-hold
attr source transmissionStateChanged
attr title "Radio transmission state, vector"
vector 98 TARPNetwork.node[18].wlan[0].radio receptionState:vector ETV
attr interpolationmode sample-hold
attr source receptionStateChanged
attr title "Radio reception state, vector"
vector 99 TARPNetwork.node[18].wlan[0].radio transmissionState:vector ETV
attr interpolationmode sample-hold
attr source transmissionStateChanged
attr title "Radio transmission state, vector"
vector 100 TARPNetwork.node[19].wlan[0].radio receptionState:vector ETV
attr interpolationmode sample-hold
attr source receptionStateChanged
attr title "Radio reception state, vector"
vector 101 TARPNetwork.node[19].wlan[0].radio transmissionState:vector ETV
attr interpolationmode sample-hold
attr source transmissionStateChanged
attr title "Radio transmission state, vector"
vector 102 TARPNetwork.node[20].wlan[0].radio receptionState:vector ETV
attr interpolationmode sample-hold
attr source receptionStateChanged
attr title "Radio reception state, vector"
vector 103 TARPNetwork.node[20].wlan[0].radio transmissionState:vector ETV
attr interpolationmode sample-hold
attr source transmissionStateChanged
attr title "Radio transmission state, vector"
vector 104 TARPNetwork.node[21].wlan[0].radio receptionState:vector ETV
attr interpolationmode sample-hold
attr source receptionStateChanged
attr title "Radio reception state, vector"
vector 105 TARPNetwork.node[21].wlan[0].radio transmissionState:vector ETV
attr interpolationmode sample-hold
attr source transmissionStateChanged
attr title "Radio transmission state, vector"
vector 106 TARPNetwork.node[22].wlan[0].radio receptionState:vector ETV
attr interpolationmode sample-hold
attr source receptionStateChanged
attr title "Radio reception state, vector"
vector 107 TARPNetwork.node[22].wlan[0].radio transmissionState:vector ETV
attr interpolationmode sample-hold
attr source transmissionStateChanged
attr title "Radio transmission state, vector"
vector 108 TARPNetwork.node[23].wlan[0].radio receptionState:vector ETV
attr interpolationmode sample-hold
attr source receptionStateChanged
attr title "Radio reception state, vector"
vector 109 TARPNetwork.node[23].wlan[0].radio transmissionState:vector ETV
attr interpolationmode sample-hold
attr source transmissionStateChanged
attr title "Radio transmission state, vector"
vector 110 TARPNetwork.node[24].wlan[0].radio receptionState:vector ETV
attr interpolationmode sample-hold
attr source receptionStateChanged
attr title "Radio reception state, vector"
vector 111 TARPNetwork.node[24].wlan[0].radio transmissionState:vector ETV
attr interpolationmode sample-hold
attr source transmissionStateChanged
attr title "Radio transmission state, vector"
vector 112 TARPNetwork.node[25].wlan[0].radio receptionState:vector ETV
attr interpolationmode sample-hold
attr source receptionStateChanged
attr title "Radio reception state, vector"
vector 113 TARPNetwork.node[25].wlan[0].radio transmissionState:vector ETV
attr interpolationmode sample-hold
attr source transmissionStateChanged
attr title "Radio transmission state, vector"
vector 114 TARPNetwork.node[26].wlan[0].radio receptionState:vector ETV
attr interpolationmode sample-hold
attr source receptionStateChanged
attr title "Radio reception state, vector"
vector 115 TARPNetwork.node[26].wlan[0].radio transmissionState:vector ETV
attr interpolationmode sample-hold
attr source transmissionStateChanged
attr title "Radio transmission state, vector"
vector 116 TARPNetwork.node[27].wlan[0].radio receptionState:vector ETV
attr interpolationmode sample-hold
attr source receptionStateChanged
attr title "Radio reception state, vector"
vector 117 TARPNetwork.node[27].wlan[0].radio transmissionState:vector ETV
attr interpolationmode sample-hold
attr source transmissionStateChanged
attr title "Radio transmission state, vector"
vector 118 TARPNetwork.node[28].wlan[0].radio receptionState:vector ETV
attr interpolationmode sample-hold
attr source receptionStateChanged
attr title "Radio reception state, vector"
vector 119 TARPNetwork.node[28].wlan[0].radio transmissionState:vector ETV
attr interpolationmode sample-hold
attr source transmissionStateChanged
attr title "Radio transmission state, vector"
vector 120 TARPNetwork.node[29].wlan[0].radio receptionState:vector ETV
attr interpolationmode sample-hold
attr source receptionStateChanged
attr title "Radio reception state, vector"
vector 121 TARPNetwork.node[29].wlan[0].radio transmissionState:vector ETV
attr interpolationmode sample-hold
attr source transmissionStateChanged
attr title "Radio transmission state, vector"
vector 122 TARPNetwork.node[30].wlan[0].radio receptionState:vector ETV
attr interpolationmode sample-hold
attr source receptionStateChanged
attr title "Radio reception state, vector"
vector 123 TARPNetwork.node[30].wlan[0].radio transmissionState:vector ETV
attr interpolationmode sample-hold
attr source transmissionStateChanged
attr title "Radio transmission state, vector"
vector 124 TARPNetwork.node[31].wlan[0].radio receptionState:vector ETV
attr interpolationmode sample-hold
attr source receptionStateChanged
attr title "Radio reception state, vector"
vector 125 TARPNetwork.node[31].wlan[0].radio transmissionState:vector ETV
attr interpolationmode sample-hold
attr source transmissionStateChanged
attr title "Radio transmission state, vector"
vector 126 TARPNetwork.node[32].wlan[0].radio receptionState:vector ETV
attr interpolationmode sample-hold
attr source receptionStateChanged
attr title "Radio reception state, vector"
vector 127 TARPNetwork.node[32].wlan[0].radio transmissionState:vector ETV
attr interpolationmode sample-hold
attr source transmissionStateChanged
attr title "Radio transmission state, vector"
vector 128 TARPNetwork.node[33].wlan[0].radio receptionState:vector ETV
attr interpolationmode sample-hold
attr source receptionStateChanged
attr title "Radio reception state, vector"
vector 129 TARPNetwork.node[33].wlan[0].radio transmissionState:vector ETV
attr interpolationmode sample-hold
attr source transmissionStateChanged
attr title "Radio transmission state, vector"
vector 130 TARPNetwork.node[34].wlan[0].radio receptionState:vector ETV
attr interpolationmode sample-hold
attr source receptionStateChanged
attr title "Radio reception state, vector"
vector 131 TARPNetwork.node[34].wlan[0].radio transmissionState:vector ETV
attr interpolationmode sample-hold
attr source transmissionStateChanged
attr title "Radio transmission state, vector"
vector 132 TARPNetwork.node[35].wlan[0].radio receptionState:vector ETV
attr interpolationmode sample-hold
attr source receptionStateChanged
attr title "Radio reception state, vector"
vector 133 TARPNetwork.node[35].wlan[0].radio transmissionState:vector ETV
attr interpolationmode sample-hold
attr source transmissionStateChanged
attr title "Radio transmission state, vector"
vector 134 TARPNetwork.node[36].wlan[0].radio receptionState:vector ETV
attr interpolationmode sample-hold
attr source receptionStateChanged
attr title "Radio reception state, vector"
vector 135 TARPNetwork.node[36].wlan[0].radio transmissionState:vector ETV
attr interpolationmode sample-hold
attr source transmissionStateChanged
attr title "Radio transmission state, vector"
vector 136 TARPNetwork.node[37].wlan[0].radio receptionState:vector ETV
attr interpolationmode sample-hold
attr source receptionStateChanged
attr title "Radio reception state, vector"
vector 137 TARPNetwork.node[37].wlan[0].radio transmissionState:vector ETV
attr interpolationmode sample-hold
attr source transmissionStateChanged
attr title "Radio transmission state, vector"
vector 138 TARPNetwork.node[38].wlan[0].radio receptionState:vector ETV
attr interpolationmode sample-hold
attr source receptionStateChanged
attr title "Radio reception state, vector"
vector 139 TARPNetwork.node[38].wlan[0].radio transmissionState:vector ETV
attr interpolationmode sample-hold
attr source transmissionStateChanged
attr title "Radio transmission state, vector"
vector 140 TARPNetwork.node[39].wlan[0].radio receptionState:vector ETV
attr interpolationmode sample-hold
attr source receptionStateChanged
attr title "Radio reception state, vector"
vector 141 TARPNetwork.node[39].wlan[0].radio transmissionState:vector ETV
attr interpolationmode sample-hold
attr source transmissionStateChanged
attr title "Radio transmission state, vector"
vector 142 TARPNetwork.node[40].wlan[0].radio receptionState:vector ETV
attr interpolationmode sample-hold
attr source receptionStateChanged
attr title "Radio reception state, vector"
vector 143 TARPNetwork.node[40].wlan[0].radio transmissionState:vector ETV
attr interpolationmode sample-hold
attr source transmissionStateChanged
attr title "Radio transmission state, vector"
vector 144 TARPNetwork.node[41].wlan[0].radio receptionState:vector ETV
attr interpolationmode sample-hold
attr source receptionStateChanged
attr title "Radio reception state, vector"
vector 145 TARPNetwork.node[41].wlan[0].radio transmissionState:vector ETV
attr interpolationmode sample-hold
attr source transmissionStateChanged
attr title "Radio transmission state, vector"
vector 146 TARPNetwork.node[42].wlan[0].radio receptionState:vector ETV
attr interpolationmode sample-hold
attr source receptionStateChanged
attr title "Radio reception state, vector"
vector 147 TARPNetwork.node[42].wlan[0].radio transmissionState:vector ETV
attr interpolationmode sample-hold
attr source transmissionStateChanged
attr title "Radio transmission state, vector"
vector 148 TARPNetwork.node[43].wlan[0].radio receptionState:vector ETV
attr interpolationmode sample-hold
attr source receptionStateChanged
attr title "Radio reception state, vector"
vector 149 TARPNetwork.node[43].wlan[0].radio transmissionState:vector ETV
attr interpolationmode sample-hold
attr source transmissionStateChanged
attr title "Radio transmission state, vector"
vector 150 TARPNetwork.node[44].wlan[0].radio receptionState:vector ETV
attr interpolationmode sample-hold
attr source receptionStateChanged
attr title "Radio reception state, vector"
vector 151 TARPNetwork.node[44].wlan[0].radio transmissionState:vector ETV
attr interpolationmode sample-hold
attr source transmissionStateChanged
attr title "Radio transmission state, vector"
vector 152 TARPNetwork.node[45].wlan[0].radio receptionState:vector ETV
attr interpolationmode sample-hold
attr source receptionStateChanged
attr title "Radio reception state, vector"
vector 153 TARPNetwork.node[45].wlan[0].radio transmissionState:vector ETV
attr interpolationmode sample-hold
attr source transmissionStateChanged
attr title "Radio transmission state, vector"
vector 154 TARPNetwork.node[46].wlan[0].radio receptionState:vector ETV
attr interpolationmode sample-hold
attr source receptionStateChanged
attr title "Radio reception state, vector"
vector 155 TARPNetwork.node[46].wlan[0].radio transmissionState:vector ETV
attr interpolationmode sample-hold
attr source transmissionStateChanged
attr title "Radio transmission state, vector"
vector 156 TARPNetwork.node[47].wlan[0].radio receptionState:vector ETV
attr interpolationmode sample-hold
attr source receptionStateChanged
attr title "Radio reception state, vector"
vector 157 TARPNetwork.node[47].wlan[0].radio transmissionState:vector ETV
attr interpolationmode sample-hold
attr source transmissionStateChanged
attr title "Radio transmission state, vector"
vector 158 TARPNetwork.node[48].wlan[0].radio receptionState:vector ETV
attr interpolationmode sample-hold
attr source receptionStateChanged
attr title "Radio reception state, vector"
vector 159 TARPNetwork.node[48].wlan[0].radio transmissionState:vector ETV
attr interpolationmode sample-hold
attr source transmissionStateChanged
attr title "Radio transmission state, vector"
vector 160 TARPNetwork.node[49].wlan[0].radio receptionState:vector ETV
attr interpolationmode sample-hold
attr source receptionStateChanged
attr title "Radio reception state, vector"
vector 161 TARPNetwork.node[49].wlan[0].radio transmissionState:vector ETV
attr interpolationmode sample-hold
attr source transmissionStateChanged
attr title "Radio transmission state, vector"
vector 162 TARPNetwork.node[50].wlan[0].radio receptionState:vector ETV
attr interpolationmode sample-hold
attr source receptionStateChanged
attr title "Radio reception state, vector"
vector 163 TARPNetwork.node[50].wlan[0].radio transmissionState:vector ETV
attr interpolationmode sample-hold
attr source transmissionStateChanged
attr title "Radio transmission state, vector"
vector 164 TARPNetwork.node[51].wlan[0].radio receptionState:vector ETV
attr interpolationmode sample-hold
attr source receptionStateChanged
attr title "Radio reception state, vector"
vector 165 TARPNetwork.node[51].wlan[0].radio transmissionState:vector ETV
attr interpolationmode sample-hold
attr source transmissionStateChanged
attr title "Radio transmission state, vector"
vector 166 TARPNetwork.node[52].wlan[0].radio receptionState:vector ETV
attr interpolationmode sample-hold
attr source receptionStateChanged
attr title "Radio reception state, vector"
vector 167 TARPNetwork.node[52].wlan[0].radio transmissionState:vector ETV
attr interpolationmode sample-hold
attr source transmissionStateChanged
attr title "Radio transmission state, vector"
vector 168 TARPNetwork.node[53].wlan[0].radio receptionState:vector ETV
attr interpolationmode sample-hold
attr source receptionStateChanged
attr title "Radio reception state, vector"
vector 169 TARPNetwork.node[53].wlan[0].radio transmissionState:vector ETV
attr interpolationmode sample-hold
attr source transmissionStateChanged
attr title "Radio transmission state, vector"
vector 170 TARPNetwork.node[54].wlan[0].radio receptionState:vector ETV
attr interpolationmode sample-hold
attr source receptionStateChanged
attr title "Radio reception state, vector"
vector 171 TARPNetwork.node[54].wlan[0].radio transmissionState:vector ETV
attr interpolationmode sample-hold
attr source transmissionStateChanged
attr title "Radio transmission state, vector"
vector 172 TARPNetwork.node[55].wlan[0].radio receptionState:vector ETV
attr interpolationmode sample-hold
attr source receptionStateChanged
attr title "Radio reception state, vector"
vector 173 TARPNetwork.node[55].wlan[0].radio transmissionState:vector ETV
attr interpolationmode sample-hold
attr source transmissionStateChanged
attr title "Radio transmission state, vector"
vector 174 TARPNetwork.node[56].wlan[0].radio receptionState:vector ETV
attr interpolationmode sample-hold
attr source receptionStateChanged
attr title "Radio reception state, vector"
vector 175 TARPNetwork.node[56].wlan[0].radio transmissionState:vector ETV
attr interpolationmode sample-hold
attr source transmissionStateChanged
attr title "Radio transmission state, vector"
vector 176 TARPNetwork.node[57].wlan[0].radio receptionState:vector ETV
attr interpolationmode sample-hold
attr source receptionStateChanged
attr title "Radio reception state, vector"
vector 177 TARPNetwork.node[57].wlan[0].radio transmissionState:vector ETV
attr interpolationmode sample-hold
attr source transmissionStateChanged
attr title "Radio transmission state, vector"
vector 178 TARPNetwork.node[58].wlan[0].radio receptionState:vector ETV
attr interpolationmode sample-hold
attr source receptionStateChanged
attr title "Radio reception state, vector"
vector 179 TARPNetwork.node[58].wlan[0].radio transmissionState:vector ETV
attr interpolationmode sample-hold
attr source transmissionStateChanged
attr title "Radio transmission state, vector"
vector 180 TARPNetwork.node[59].wlan[0].radio receptionState:vector ETV
attr interpolationmode sample-hold
attr source receptionStateChanged
attr title "Radio reception state, vector"
vector 181 TARPNetwork.node[59].wlan[0].radio transmissionState:vector ETV
attr interpolationmode sample-hold
attr source transmissionStateChanged
attr title "Radio transmission state, vector"
vector 182 TARPNetwork.nodeA.wlan[0].radio receptionState:vector ETV
attr interpolationmode sample-hold
attr source receptionStateChanged
attr title "Radio reception state, vector"
vector 183 TARPNetwork.nodeA.wlan[0].radio transmissionState:vector ETV
attr interpolationmode sample-hold
attr source transmissionStateChanged
attr title "Radio transmission state, vector"
vector 184 TARPNetwork.nodeB.wlan[0].radio receptionState:vector ETV
attr interpolationmode sample-hold
attr source receptionStateChanged
attr title "Radio reception state, vector"
vector 185 TARPNetwork.nodeB.wlan[0].radio transmissionState:vector ETV
attr interpolationmode sample-hold
attr source transmissionStateChanged
attr title "Radio transmission state, vector"
vector 186 TARPNetwork.nodeA.app[0] pingTxSeq:vector ETV
attr interpolationmode none
attr title "ping tx seq, vector"
vector 187 TARPNetwork.nodeA.wlan[0].mac rcvdPkFromHl:vector(packetBytes) ETV
attr interpolationmode none
attr source packetReceivedFromUpper
attr title "packets received from higher layer, vector(packetBytes)"
vector 188 TARPNetwork.nodeA.wlan[0].mac.queue packetPushed:vector(packetBytes) ETV
attr interpolationmode none
attr title "packet pushed, vector(packetBytes)"
vector 189 TARPNetwork.nodeA.wlan[0].mac.queue queueLength:vector ETV
attr interpolationmode sample-hold
attr source "count(packetPushed) - count(packetPopped) - count(packetRemoved) - count(packetDropped)"
attr title "queue length, vector"
vector 190 TARPNetwork.nodeA.wlan[0].mac.queue packetPopped:vector(packetBytes) ETV
attr interpolationmode none
attr title "packet popped, vector(packetBytes)"
vector 191 TARPNetwork.nodeA.wlan[0].mac.queue queueingTime:vector ETV
attr interpolationmode none
attr source queueingTime(packetPopped)
attr title "queueing times, vector"
attr unit s
vector 192 TARPNetwork.nodeA.wlan[0].mac sentDownPk:vector(packetBytes) ETV
attr interpolationmode none
attr source packetSentToLower
attr title "packets sent to lower layer, vector(packetBytes)"
vector 193 TARPNetwork.node[3].wlan[0].mac rcvdPkFromLl:vector(packetBytes) ETV
attr interpolationmode none
attr source packetReceivedFromLower
attr title "packets received from lower layer, vector(packetBytes)"
vector 194 TARPNetwork.node[3].wlan[0].mac passedUpPk:vector(packetBytes) ETV
attr interpolationmode none
attr source packetSentToUpper
attr title "packets passed to higher layer, vector(packetBytes)"
vector 195 TARPNetwork.node[3].wlan[0].mac rcvdPkFromHl:vector(packetBytes) ETV
attr interpolationmode none
attr source packetReceivedFromUpper
attr title "packets received from higher layer, vector(packetBytes)"
vector 196 TARPNetwork.node[3].wlan[0].mac.queue packetPushed:vector(packetBytes) ETV
attr interpolationmode none
attr title "packet pushed, vector(packetBytes)"
vector 197 TARPNetwork.node[3].wlan[0].mac.queue queueLength:vector ETV
attr interpolationmode sample-hold
attr source "count(packetPushed) - count(packetPopped) - count(packetRemoved) - count(packetDropped)"
attr title "queue length, vector"
vector 198 TARPNetwork.node[3].wlan[0].mac.queue packetPopped:vector(packetBytes) ETV
attr interpolationmode none
attr title "packet popped, vector(packetBytes)"
vector 199 TARPNetwork.node[3].wlan[0].mac.queue queueingTime:vector ETV
attr interpolationmode none
attr source queueingTime(packetPopped)
attr title "queueing times, vector"
attr unit s
vector 200 TARPNetwork.node[3].wlan[0].mac sentDownPk:vector(packetBytes) ETV
attr interpolationmode none
attr source packetSentToLower
attr title "packets sent to lower layer, vector(packetBytes)"
vector 201 TARPNetwork.node[10].wlan[0].mac rcvdPkFromLl:vector(packetBytes) ETV
attr interpolationmode none
attr source packetReceivedFromLower
attr title "packets received from lower layer, vector(packetBytes)"
vector 202 TARPNetwork.node[10].wlan[0].mac passedUpPk:vector(packetBytes) ETV
attr interpolationmode none
attr source packetSentToUpper
attr title "packets passed to higher layer, vector(packetBytes)"
vector 203 TARPNetwork.node[10].wlan[0].mac rcvdPkFromHl:vector(packetBytes) ETV
attr interpolationmode none
attr source packetReceivedFromUpper
attr title "packets received from higher layer, vector(packetBytes)"
vector 204 TARPNetwork.node[10].wlan[0].mac.queue packetPushed:vector(packetBytes) ETV
attr interpolationmode none
attr title "packet pushed, vector(packetBytes)"
vector 205 TARPNetwork.node[10].wlan[0].mac.queue queueLength:vector ETV
attr interpolationmode sample-hold
attr source "count(packetPushed) - count(packetPopped) - count(packetRemoved) - count(packetDropped)"
attr title "queue length, vector"
vector 206 TARPNetwork.node[10].wlan[0].mac.queue packetPopped:vector(packetBytes) ETV
attr interpolationmode none
attr title "packet popped, vector(packetBytes)"
vector 207 TARPNetwork.node[10].wlan[0].mac.queue queueingTime:vector ETV
attr interpolationmode none
attr source queueingTime(packetPopped)
attr title "queueing times, vector"
attr unit s
vector 208 TARPNetwork.node[10].wlan[0].mac sentDownPk:vector(packetBytes) ETV
attr interpolationmode none
attr source packetSentToLower
attr title "packets sent to lower layer, vector(packetBytes)"
vector 209 TARPNetwork.node[31].wlan[0].mac rcvdPkFromLl:vector(packetBytes) ETV
attr interpolationmode none
attr source packetReceivedFromLower
attr title "packets received from lower layer, vector(packetBytes)"
vector 210 TARPNetwork.node[31].wlan[0].mac passedUpPk:vector(packetBytes) ETV
attr interpolationmode none
attr source packetSentToUpper
attr title "packets passed to higher layer, vector(packetBytes)"
vector 211 TARPNetwork.node[31].wlan[0].mac rcvdPkFromHl:vector(packetBytes) ETV
attr interpolationmode none
attr source packetReceivedFromUpper
attr title "packets received from higher layer, vector(packetBytes)"
vector 212 TARPNetwork.node[31].wlan[0].mac.queue packetPushed:vector(packetBytes) ETV
attr interpolationmode none
attr title "packet pushed, vector(packetBytes)"
vector 213 TARPNetwork.node[31].wlan[0].mac.queue queueLength:vector ETV
attr interpolationmode sample-hold
attr source "count(packetPushed) - count(packetPopped) - count(packetRemoved) - count(packetDropped)"
attr title "queue length, vector"
vector 214 TARPNetwork.node[31].wlan[0].mac.queue packetPopped:vector(packetBytes) ETV
attr interpolationmode none
attr title "packet popped, vector(packetBytes)"
vector 215 TARPNetwork.node[31].wlan[0].mac.queue queueingTime:vector ETV
attr interpolationmode none
attr source queueingTime(packetPopped)
attr title "queueing times, vector"
attr unit s
vector 216 TARPNetwork.node[31].wlan[0].mac sentDownPk:vector(packetBytes) ETV
attr interpolationmode none
attr source packetSentToLower
attr title "packets sent to lower layer, vector(packetBytes)"
vector 217 TARPNetwork.node[38].wlan[0].mac rcvdPkFromLl:vector(packetBytes) ETV
attr interpolationmode none
attr source packetReceivedFromLower
attr title "packets received from lower layer, vector(packetBytes)"
vector 218 TARPNetwork.node[38].wlan[0].mac passedUpPk:vector(packetBytes) ETV
attr interpolationmode none
attr source packetSentToUpper
attr title "packets passed to higher layer, vector(packetBytes)"
vector 219 TARPNetwork.node[38].wlan[0].mac rcvdPkFromHl:vector(packetBytes) ETV
attr interpolationmode none
attr source packetReceivedFromUpper
attr title "packets received from higher layer, vector(packetBytes)"
vector 220 TARPNetwork.node[38].wlan[0].mac.queue packetPushed:vector(packetBytes) ETV
attr interpolationmode none
attr title "packet pushed, vector(packetBytes)"
vector 221 TARPNetwork.node[38].wlan[0].mac.queue queueLength:vector ETV
attr interpolationmode sample-hold
attr source "count(packetPushed) - count(packetPopped) - count(packetRemoved) - count(packetDropped)"
attr title "queue length, vector"
vector 222 TARPNetwork.node[38].wlan[0].mac.queue packetPopped:vector(packetBytes) ETV
attr interpolationmode none
attr title "packet popped, vector(packetBytes)"
vector 223 TARPNetwork.node[38].wlan[0].mac.queue queueingTime:vector ETV
attr interpolationmode none
attr source queueingTime(packetPopped)
attr title "queueing times, vector"
attr unit s
vector 224 TARPNetwork.node[38].wlan[0].mac sentDownPk:vector(packetBytes) ETV
attr interpolationmode none
attr source packetSentToLower
attr title "packets sent to lower layer, vector(packetBytes)"
vector 225 TARPNetwork.nodeA.wlan[0].mac rcvdPkFromLl:vector(packetBytes) ETV
attr interpolationmode none
attr source packetReceivedFromLower
attr title "packets received from lower layer, vector(packetBytes)"
vector 226 TARPNetwork.nodeA.wlan[0].mac passedUpPk:vector(packetBytes) ETV
attr interpolationmode none
attr source packetSentToUpper
attr title "packets passed to higher layer, vector(packetBytes)"
vector 227 TARPNetwork.node[44].wlan[0].mac rcvdPkFromLl:vector(packetBytes) ETV
attr interpolationmode none
attr source packetReceivedFromLower
attr title "packets received from lower layer, vector(packetBytes)"
vector 228 TARPNetwork.node[44].wlan[0].mac passedUpPk:vector(packetBytes) ETV
attr interpolationmode none
attr source packetSentToUpper
attr title "packets passed to higher layer, vector(packetBytes)"
vector 229 TARPNetwork.node[44].wlan[0].mac rcvdPkFromHl:vector(packetBytes) ETV
attr interpolationmode none
attr source packetReceivedFromUpper
attr title "packets received from higher layer, vector(packetBytes)"
vector 230 TARPNetwork.node[44].wlan[0].mac.queue packetPushed:vector(packetBytes) ETV
attr interpolationmode none
attr title "packet pushed, vector(packetBytes)"
vector 231 TARPNetwork.node[44].wlan[0].mac.queue queueLength:vector ETV
attr interpolationmode sample-hold
attr source "count(packetPushed) - count(packetPopped) - count(packetRemoved) - count(packetDropped)"
attr title "queue length, vector"
vector 232 TARPNetwork.node[44].wlan[0].mac.queue packetPopped:vector(packetBytes) ETV
attr interpolationmode none
attr title "packet popped, vector(packetBytes)"
vector 233 TARPNetwork.node[44].wlan[0].mac.queue queueingTime:vector ETV
attr interpolationmode none
attr source queueingTime(packetPopped)
attr title "queueing times, vector"
attr unit s
vector 234 TARPNetwork.node[44].wlan[0].mac sentDownPk:vector(packetBytes) ETV
attr interpolationmode none
attr source packetSentToLower
attr title "packets sent to lower layer, vector(packetBytes)"
vector 235 TARPNetwork.node[47].wlan[0].mac rcvdPkFromLl:vector(packetBytes) ETV
attr interpolationmode none
attr source packetReceivedFromLower
attr title "packets received from lower layer, vector(packetBytes)"
vector 236 TARPNetwork.node[47].wlan[0].mac passedUpPk:vector(packetBytes) ETV
attr interpolationmode none
attr source packetSentToUpper
attr title "packets passed to higher layer, vector(packetBytes)"
vector 237 TARPNetwork.node[47].wlan[0].mac rcvdPkFromHl:vector(packetBytes) ETV
attr interpolationmode none
attr source packetReceivedFromUpper
attr title "packets received from higher layer, vector(packetBytes)"
vector 238 TARPNetwork.node[47].wlan[0].mac.queue packetPushed:vector(packetBytes) ETV
attr interpolationmode none
attr title "packet pushed, vector(packetBytes)"
vector 239 TARPNetwork.node[47].wlan[0].mac.queue queueLength:vector ETV
attr interpolationmode sample-hold
attr source "count(packetPushed) - count(packetPopped) - count(packetRemoved) - count(packetDropped)"
attr title "queue length, vector"
vector 240 TARPNetwork.node[47].wlan[0].mac.queue packetPopped:vector(packetBytes) ETV
attr interpolationmode none
attr title "packet popped, vector(packetBytes)"
vector 241 TARPNetwork.node[47].wlan[0].mac.queue queueingTime:vector ETV
attr interpolationmode none
attr source queueingTime(packetPopped)
attr title "queueing times, vector"
attr unit s
vector 242 TARPNetwork.node[47].wlan[0].mac sentDownPk:vector(packetBytes) ETV
attr interpolationmode none
attr source packetSentToLower
attr title "packets sent to lower layer, vector(packetBytes)"
vector 243 TARPNetwork.node[37].wlan[0].mac rcvdPkFromLl:vector(packetBytes) ETV
attr interpolationmode none
attr source packetReceivedFromLower
attr title "packets received from lower layer, vector(packetBytes)"
vector 244 TARPNetwork.node[37].wlan[0].mac passedUpPk:vector(packetBytes) ETV
attr interpolationmode none
attr source packetSentToUpper
attr title "packets passed to higher layer, vector(packetBytes)"
vector 245 TARPNetwork.node[37].wlan[0].mac rcvdPkFromHl:vector(packetBytes) ETV
attr interpolationmode none
attr source packetReceivedFromUpper
attr title "packets received from higher layer, vector(packetBytes)"
vector 246 TARPNetwork.node[37].wlan[0].mac.queue packetPushed:vector(packetBytes) ETV
attr interpolationmode none
attr title "packet pushed, vector(packetBytes)"
vector 247 TARPNetwork.node[37].wlan[0].mac.queue queueLength:vector ETV
attr interpolationmode sample-hold
attr source "count(packetPushed) - count(packetPopped) - count(packetRemoved) - count(packetDropped)"
attr title "queue length, vector"
vector 248 TARPNetwork.node[37].wlan[0].mac.queue packetPopped:vector(packetBytes) ETV
attr interpolationmode none
attr title "packet popped, vector(packetBytes)"
vector 249 TARPNetwork.node[37].wlan[0].mac.queue queueingTime:vector ETV
attr interpolationmode none
attr source queueingTime(packetPopped)
attr title "queueing times, vector"
attr unit s
vector 250 TARPNetwork.node[37].wlan[0].mac sentDownPk:vector(packetBytes) ETV
attr interpolationmode none
attr source packetSentToLower
attr title "packets sent to lower layer, vector(packetBytes)"
vector 251 TARPNetwork.node[19].wlan[0].mac rcvdPkFromLl:vector(packetBytes) ETV
attr interpolationmode none
attr source packetReceivedFromLower
attr title "packets received from lower layer, vector(packetBytes)"
vector 252 TARPNetwork.node[19].wlan[0].mac passedUpPk:vector(packetBytes) ETV
attr interpolationmode none
attr source packetSentToUpper
attr title "packets passed to higher layer, vector(packetBytes)"
vector 253 TARPNetwork.node[19].wlan[0].mac rcvdPkFromHl:vector(packetBytes) ETV
attr interpolationmode none
attr source packetReceivedFromUpper
attr title "packets received from higher layer, vector(packetBytes)"
vector 254 TARPNetwork.node[19].wlan[0].mac.queue packetPushed:vector(packetBytes) ETV
attr interpolationmode none
attr title "packet pushed, vector(packetBytes)"
vector 255 TARPNetwork.node[19].wlan[0].mac.queue queueLength:vector ETV
attr interpolationmode sample-hold
attr source "count(packetPushed) - count(packetPopped) - count(packetRemoved) - count(packetDropped)"
attr title "queue length, vector"
vector 256 TARPNetwork.node[19].wlan[0].mac.queue packetPopped:vector(packetBytes) ETV
attr interpolationmode none
attr title "packet popped, vector(packetBytes)"
vector 257 TARPNetwork.node[19].wlan[0].mac.queue queueingTime:vector ETV
attr interpolationmode none
attr source queueingTime(packetPopped)
attr title "queueing times, vector"
attr unit s
vector 258 TARPNetwork.node[19].wlan[0].mac sentDownPk:vector(packetBytes) ETV
attr interpolationmode none
attr source packetSentToLower
attr title "packets sent to lower layer, vector(packetBytes)"
vector 259 TARPNetwork.node[15].wlan[0].mac rcvdPkFromLl:vector(packetBytes) ETV
attr interpolationmode none
attr source packetReceivedFromLower
attr title "packets received from lower layer, vector(packetBytes)"
vector 260 TARPNetwork.node[15].wlan[0].mac passedUpPk:vector(packetBytes) ETV
attr interpolationmode none
attr source packetSentToUpper
attr title "packets passed to higher layer, vector(packetBytes)"
vector 261 TARPNetwork.node[15].wlan[0].mac rcvdPkFromHl:vector(packetBytes) ETV
attr interpolationmode none
attr source packetReceivedFromUpper
attr title "packets received from higher layer, vector(packetBytes)"
vector 262 TARPNetwork.node[15].wlan[0].mac.queue packetPushed:vector(packetBytes) ETV
attr interpolationmode none
attr title "packet pushed, vector(packetBytes)"
vector 263 TARPNetwork.node[15].wlan[0].mac.queue queueLength:vector ETV
attr interpolationmode sample-hold
attr source "count(packetPushed) - count(packetPopped) - count(packetRemoved) - count(packetDropped)"
attr title "queue length, vector"
vector 264 TARPNetwork.node[15].wlan[0].mac.queue packetPopped:vector(packetBytes) ETV
attr interpolationmode none
attr title "packet popped, vector(packetBytes)"
vector 265 TARPNetwork.node[15].wlan[0].mac.queue queueingTime:vector ETV
attr interpolationmode none
attr source queueingTime(packetPopped)
attr title "queueing times, vector"
attr unit s
vector 266 TARPNetwork.node[15].wlan[0].mac sentDownPk:vector(packetBytes) ETV
attr interpolationmode none
attr source packetSentToLower
attr title "packets sent to lower layer, vector(packetBytes)"
vector 267 TARPNetwork.node[0].wlan[0].mac rcvdPkFromLl:vector(packetBytes) ETV
attr interpolationmode none
attr source packetReceivedFromLower
attr title "packets received from lower layer, vector(packetBytes)"
vector 268 TARPNetwork.node[0].wlan[0].mac passedUpPk:vector(packetBytes) ETV
attr interpolationmode none
attr source packetSentToUpper
attr title "packets passed to higher layer, vector(packetBytes)"
vector 269 TARPNetwork.node[0].wlan[0].mac rcvdPkFromHl:vector(packetBytes) ETV
attr interpolationmode none
attr source packetReceivedFromUpper
attr title "packets received from higher layer, vector(packetBytes)"
vector 270 TARPNetwork.node[0].wlan[0].mac.queue packetPushed:vector(packetBytes) ETV
attr interpolationmode none
attr title "packet pushed, vector(packetBytes)"
vector 271 TARPNetwork.node[0].wlan[0].mac.queue queueLength:vector ETV
attr interpolationmode sample-hold
attr source "count(packetPushed) - count(packetPopped) - count(packetRemoved) - count(packetDropped)"
attr title "queue length, vector"
vector 272 TARPNetwork.node[0].wlan[0].mac.queue packetPopped:vector(packetBytes) ETV
attr interpolationmode none
attr title "packet popped, vector(packetBytes)"
vector 273 TARPNetwork.node[0].wlan[0].mac.queue queueingTime:vector ETV
attr interpolationmode none
attr source queueingTime(packetPopped)
attr title "queueing times, vector"
attr unit s
vector 274 TARPNetwork.node[0].wlan[0].mac sentDownPk:vector(packetBytes) ETV
attr interpolationmode none
attr source packetSentToLower
attr title "packets sent to lower layer, vector(packetBytes)"
vector 275 TARPNetwork.node[41].wlan[0].mac rcvdPkFromLl:vector(packetBytes) ETV
attr interpolationmode none
attr source packetReceivedFromLower
attr title "packets received from lower layer, vector(packetBytes)"
vector 276 TARPNetwork.node[41].wlan[0].mac passedUpPk:vector(packetBytes) ETV
attr interpolationmode none
attr source packetSentToUpper
attr title "packets passed to higher layer, vector(packetBytes)"
vector 277 TARPNetwork.node[41].wlan[0].mac rcvdPkFromHl:vector(packetBytes) ETV
attr interpolationmode none
attr source packetReceivedFromUpper
attr title "packets received from higher layer, vector(packetBytes)"
vector 278 TARPNetwork.node[41].wlan[0].mac.queue packetPushed:vector(packetBytes) ETV
attr interpolationmode none
attr title "packet pushed, vector(packetBytes)"
vector 279 TARPNetwork.node[41].wlan[0].mac.queue queueLength:vector ETV
attr interpolationmode sample-hold
attr source "count(packetPushed) - count(packetPopped) - count(packetRemoved) - count(packetDropped)"
attr title "queue length, vector"
vector 280 TARPNetwork.node[41].wlan[0].mac.queue packetPopped:vector(packetBytes) ETV
attr interpolationmode none
attr title "packet popped, vector(packetBytes)"
vector 281 TARPNetwork.node[41].wlan[0].mac.queue queueingTime:vector ETV
attr interpolationmode none
attr source queueingTime(packetPopped)
attr title "queueing times, vector"
attr unit s
vector 282 TARPNetwork.node[41].wlan[0].mac sentDownPk:vector(packetBytes) ETV
attr interpolationmode none
attr source packetSentToLower
attr title "packets sent to lower layer, vector(packetBytes)"
vector 283 TARPNetwork.node[50].wlan[0].mac rcvdPkFromLl:vector(packetBytes) ETV
attr interpolationmode none
attr source packetReceivedFromLower
attr title "packets received from lower layer, vector(packetBytes)"
vector 284 TARPNetwork.node[50].wlan[0].mac passedUpPk:vector(packetBytes) ETV
attr interpolationmode none
attr source packetSentToUpper
attr title "packets passed to higher layer, vector(packetBytes)"
vector 285 TARPNetwork.node[50].wlan[0].mac rcvdPkFromHl:vector(packetBytes) ETV
attr interpolationmode none
attr source packetReceivedFromUpper
attr title "packets received from higher layer, vector(packetBytes)"
vector 286 TARPNetwork.node[50].wlan[0].mac.queue packetPushed:vector(packetBytes) ETV
attr interpolationmode none
attr title "packet pushed, vector(packetBytes)"
vector 287 TARPNetwork.node[50].wlan[0].mac.queue queueLength:vector ETV
attr interpolationmode sample-hold
attr source "count(packetPushed) - count(packetPopped) - count(packetRemoved) - count(packetDropped)"
attr title "queue length, vector"
vector 288 TARPNetwork.node[50].wlan[0].mac.queue packetPopped:vector(packetBytes) ETV
attr interpolationmode none
attr title "packet popped, vector(packetBytes)"
vector 289 TARPNetwork.node[50].wlan[0].mac.queue queueingTime:vector ETV
attr interpolationmode none
attr source queueingTime(packetPopped)
attr title "queueing times, vector"
attr unit s
vector 290 TARPNetwork.node[50].wlan[0].mac sentDownPk:vector(packetBytes) ETV
attr interpolationmode none
attr source packetSentToLower
attr title "packets sent to lower layer, vector(packetBytes)"
vector 291 TARPNetwork.node[12].wlan[0].mac rcvdPkFromLl:vector(packetBytes) ETV
attr interpolationmode none
attr source packetReceivedFromLower
attr title "packets received from lower layer, vector(packetBytes)"
vector 292 TARPNetwork.node[12].wlan[0].mac passedUpPk:vector(packetBytes) ETV
attr interpolationmode none
attr source packetSentToUpper
attr title "packets passed to higher layer, vector(packetBytes)"
vector 293 TARPNetwork.node[12].wlan[0].mac rcvdPkFromHl:vector(packetBytes) ETV
attr interpolationmode none
attr source packetReceivedFromUpper
attr title "packets received from higher layer, vector(packetBytes)"
vector 294 TARPNetwork.node[12].wlan[0].mac.queue packetPushed:vector(packetBytes) ETV
attr interpolationmode none
attr title "packet pushed, vector(packetBytes)"
vector 295 TARPNetwork.node[12].wlan[0].mac.queue queueLength:vector ETV
attr interpolationmode sample-hold
attr source "count(packetPushed) - count(packetPopped) - count(packetRemoved) - count(packetDropped)"
attr title "queue length, vector"
vector 296 TARPNetwork.node[12].wlan[0].mac.queue packetPopped:vector(packetBytes) ETV
attr interpolationmode none
attr title "packet popped, vector(packetBytes)"
vector 297 TARPNetwork.node[12].wlan[0].mac.queue queueingTime:vector ETV
attr interpolationmode none
attr source queueingTime(packetPopped)
attr title "queueing times, vector"
attr unit s
vector 298 TARPNetwork.node[12].wlan[0].mac sentDownPk:vector(packetBytes) ETV
attr interpolationmode none
attr source packetSentToLower
attr title "packets sent to lower layer, vector(packetBytes)"
vector 299 TARPNetwork.node[18].wlan[0].mac rcvdPkFromLl:vector(packetBytes) ETV
attr interpolationmode none
attr source packetReceivedFromLower
attr title "packets received from lower layer, vector(packetBytes)"
vector 300 TARPNetwork.node[18].wlan[0].mac passedUpPk:vector(packetBytes) ETV
attr interpolationmode none
attr source packetSentToUpper
attr title "packets passed to higher layer, vector(packetBytes)"
vector 301 TARPNetwork.node[18].wlan[0].mac rcvdPkFromHl:vector(packetBytes) ETV
attr interpolationmode none
attr source packetReceivedFromUpper
attr title "packets received from higher layer, vector(packetBytes)"
vector 302 TARPNetwork.node[18].wlan[0].mac.queue packetPushed:vector(packetBytes) ETV
attr interpolationmode none
attr title "packet pushed, vector(packetBytes)"
vector 303 TARPNetwork.node[18].wlan[0].mac.queue queueLength:vector ETV
attr interpolationmode sample-hold
attr source "count(packetPushed) - count(packetPopped) - count(packetRemoved) - count(packetDropped)"
attr title "queue length, vector"
vector 304 TARPNetwork.node[18].wlan[0].mac.queue packetPopped:vector(packetBytes) ETV
attr interpolationmode none
attr title "packet popped, vector(packetBytes)"
vector 305 TARPNetwork.node[18].wlan[0].mac.queue queueingTime:vector ETV
attr interpolationmode none
attr source queueingTime(packetPopped)
attr title "queueing times, vector"
attr unit s
vector 306 TARPNetwork.node[18].wlan[0].mac sentDownPk:vector(packetBytes) ETV
attr interpolationmode none
attr source packetSentToLower
attr title "packets sent to lower layer, vector(packetBytes)"
vector 307 TARPNetwork.node[23].wlan[0].mac rcvdPkFromLl:vector(packetBytes) ETV
attr interpolationmode none
attr source packetReceivedFromLower
attr title "packets received from lower layer, vector(packetBytes)"
vector 308 TARPNetwork.node[23].wlan[0].mac passedUpPk:vector(packetBytes) ETV
attr interpolationmode none
attr source packetSentToUpper
attr title "packets passed to higher layer, vector(packetBytes)"
vector 309 TARPNetwork.node[23].wlan[0].mac rcvdPkFromHl:vector(packetBytes) ETV
attr interpolationmode none
attr source packetReceivedFromUpper
attr title "packets received from higher layer, vector(packetBytes)"
vector 310 TARPNetwork.node[23].wlan[0].mac.queue packetPushed:vector(packetBytes) ETV
attr interpolationmode none
attr title "packet pushed, vector(packetBytes)"
vector 311 TARPNetwork.node[23].wlan[0].mac.queue queueLength:vector ETV
attr interpolationmode sample-hold
attr source "count(packetPushed) - count(packetPopped) - count(packetRemoved) - count(packetDropped)"
attr title "queue length, vector"
vector 312 TARPNetwork.node[23].wlan[0].mac.queue packetPopped:vector(packetBytes) ETV
attr interpolationmode none
attr title "packet popped, vector(packetBytes)"
vector 313 TARPNetwork.node[23].wlan[0].mac.queue queueingTime:vector ETV
attr interpolationmode none
attr source queueingTime(packetPopped)
attr title "queueing times, vector"
attr unit s
vector 314 TARPNetwork.node[23].wlan[0].mac sentDownPk:vector(packetBytes) ETV
attr interpolationmode none
attr source packetSentToLower
attr title "packets sent to lower layer, vector(packetBytes)"
vector 315 TARPNetwork.node[21].wlan[0].mac rcvdPkFromLl:vector(packetBytes) ETV
attr interpolationmode none
attr source packetReceivedFromLower
attr title "packets received from lower layer, vector(packetBytes)"
vector 316 TARPNetwork.node[21].wlan[0].mac passedUpPk:vector(packetBytes) ETV
attr interpolationmode none
attr source packetSentToUpper
attr title "packets passed to higher layer, vector(packetBytes)"
vector 317 TARPNetwork.node[21].wlan[0].mac rcvdPkFromHl:vector(packetBytes) ETV
attr interpolationmode none
attr source packetReceivedFromUpper
attr title "packets received from higher layer, vector(packetBytes)"
vector 318 TARPNetwork.node[21].wlan[0].mac.queue packetPushed:vector(packetBytes) ETV
attr interpolationmode none
attr title "packet pushed, vector(packetBytes)"
vector 319 TARPNetwork.node[21].wlan[0].mac.queue queueLength:vector ETV
attr interpolationmode sample-hold
attr source "count(packetPushed) - count(packetPopped) - count(packetRemoved) - count(packetDropped)"
attr title "queue length, vector"
vector 320 TARPNetwork.node[21].wlan[0].mac.queue packetPopped:vector(packetBytes) ETV
attr interpolationmode none
attr title "packet popped, vector(packetBytes)"
vector 321 TARPNetwork.node[21].wlan[0].mac.queue queueingTime:vector ETV
attr interpolationmode none
attr source queueingTime(packetPopped)
attr title "queueing times, vector"
attr unit s
vector 322 TARPNetwork.node[21].wlan[0].mac sentDownPk:vector(packetBytes) ETV
attr interpolationmode none
attr source packetSentToLower
attr title "packets sent to lower layer, vector(packetBytes)"
vector 323 TARPNetwork.node[33].wlan[0].mac rcvdPkFromLl:vector(packetBytes) ETV
attr interpolationmode none
attr source packetReceivedFromLower
attr title "packets received from lower layer, vector(packetBytes)"
vector 324 TARPNetwork.node[33].wlan[0].mac passedUpPk:vector(packetBytes) ETV
attr interpolationmode none
attr source packetSentToUpper
attr title "packets passed to higher layer, vector(packetBytes)"
vector 325 TARPNetwork.node[33].wlan[0].mac rcvdPkFromHl:vector(packetBytes) ETV
attr interpolationmode none
attr source packetReceivedFromUpper
attr title "packets received from higher layer, vector(packetBytes)"
vector 326 TARPNetwork.node[33].wlan[0].mac.queue packetPushed:vector(packetBytes) ETV
attr interpolationmode none
attr title "packet pushed, vector(packetBytes)"
vector 327 TARPNetwork.node[33].wlan[0].mac.queue queueLength:vector ETV
attr interpolationmode sample-hold
attr source "count(packetPushed) - count(packetPopped) - count(packetRemoved) - count(packetDropped)"
attr title "queue length, vector"
vector 328 TARPNetwork.node[33].wlan[0].mac.queue packetPopped:vector(packetBytes) ETV
attr interpolationmode none
attr title "packet popped, vector(packetBytes)"
vector 329 TARPNetwork.node[33].wlan[0].mac.queue queueingTime:vector ETV
attr interpolationmode none
attr source queueingTime(packetPopped)
attr title "queueing times, vector"
attr unit s
vector 330 TARPNetwork.node[33].wlan[0].mac sentDownPk:vector(packetBytes) ETV
attr interpolationmode none
attr source packetSentToLower
attr title "packets sent to lower layer, vector(packetBytes)"
vector 331 TARPNetwork.node[34].wlan[0].mac rcvdPkFromLl:vector(packetBytes) ETV
attr interpolationmode none
attr source packetReceivedFromLower
attr title "packets received from lower layer, vector(packetBytes)"
vector 332 TARPNetwork.node[34].wlan[0].mac passedUpPk:vector(packetBytes) ETV
attr interpolationmode none
attr source packetSentToUpper
attr title "packets passed to higher layer, vector(packetBytes)"
vector 333 TARPNetwork.node[34].wlan[0].mac rcvdPkFromHl:vector(packetBytes) ETV
attr interpolationmode none
attr source packetReceivedFromUpper
attr title "packets received from higher layer, vector(packetBytes)"
vector 334 TARPNetwork.node[34].wlan[0].mac.queue packetPushed:vector(packetBytes) ETV
attr interpolationmode none
attr title "packet pushed, vector(packetBytes)"
vector 335 TARPNetwork.node[34].wlan[0].mac.queue queueLength:vector ETV
attr interpolationmode sample-hold
attr source "count(packetPushed) - count(packetPopped) - count(packetRemoved) - count(packetDropped)"
attr title "queue length, vector"
vector 336 TARPNetwork.node[34].wlan[0].mac.queue packetPopped:vector(packetBytes) ETV
attr interpolationmode none
attr title "packet popped, vector(packetBytes)"
vector 337 TARPNetwork.node[34].wlan[0].mac.queue queueingTime:vector ETV
attr interpolationmode none
attr source queueingTime(packetPopped)
attr title "queueing times, vector"
attr unit s
vector 338 TARPNetwork.node[34].wlan[0].mac sentDownPk:vector(packetBytes) ETV
attr interpolationmode none
attr source packetSentToLower
attr title "packets sent to lower layer, vector(packetBytes)"
vector 339 TARPNetwork.node[28].wlan[0].mac rcvdPkFromLl:vector(packetBytes) ETV
attr interpolationmode none
attr source packetReceivedFromLower
attr title "packets received from lower layer, vector(packetBytes)"
vector 340 TARPNetwork.node[28].wlan[0].mac passedUpPk:vector(packetBytes) ETV
attr interpolationmode none
attr source packetSentToUpper
attr title "packets passed to higher layer, vector(packetBytes)"
vector 341 TARPNetwork.node[28].wlan[0].mac rcvdPkFromHl:vector(packetBytes) ETV
attr interpolationmode none
attr source packetReceivedFromUpper
attr title "packets received from higher layer, vector(packetBytes)"
vector 342 TARPNetwork.node[28].wlan[0].mac.queue packetPushed:vector(packetBytes) ETV
attr interpolationmode none
attr title "packet pushed, vector(packetBytes)"
vector 343 TARPNetwork.node[28].wlan[0].mac.queue queueLength:vector ETV
attr interpolationmode sample-hold
attr source "count(packetPushed) - count(packetPopped) - count(packetRemoved) - count(packetDropped)"
attr title "queue length, vector"
vector 344 TARPNetwork.node[28].wlan[0].mac.queue packetPopped:vector(packetBytes) ETV
attr interpolationmode none
attr title "packet popped, vector(packetBytes)"
vector 345 TARPNetwork.node[28].wlan[0].mac.queue queueingTime:vector ETV
attr interpolationmode none
attr source queueingTime(packetPopped)
attr title "queueing times, vector"
attr unit s
vector 346 TARPNetwork.node[28].wlan[0].mac sentDownPk:vector(packetBytes) ETV
attr interpolationmode none
attr source packetSentToLower
attr title "packets sent to lower layer, vector(packetBytes)"
vector 347 TARPNetwork.node[2].wlan[0].mac rcvdPkFromLl:vector(packetBytes) ETV
attr interpolationmode none
attr source packetReceivedFromLower
attr title "packets received from lower layer, vector(packetBytes)"
vector 348 TARPNetwork.node[2].wlan[0].mac passedUpPk:vector(packetBytes) ETV
attr interpolationmode none
attr source packetSentToUpper
attr title "packets passed to higher layer, vector(packetBytes)"
vector 349 TARPNetwork.node[2].wlan[0].mac rcvdPkFromHl:vector(packetBytes) ETV
attr interpolationmode none
attr source packetReceivedFromUpper
attr title "packets received from higher layer, vector(packetBytes)"
vector 350 TARPNetwork.node[2].wlan[0].mac.queue packetPushed:vector(packetBytes) ETV
attr interpolationmode none
attr title "packet pushed, vector(packetBytes)"
vector 351 TARPNetwork.node[2].wlan[0].mac.queue queueLength:vector ETV
attr interpolationmode sample-hold
attr source "count(packetPushed) - count(packetPopped) - count(packetRemoved) - count(packetDropped)"
attr title "queue length, vector"
vector 352 TARPNetwork.node[2].wlan[0].mac.queue packetPopped:vector(packetBytes) ETV
attr interpolationmode none
attr title "packet popped, vector(packetBytes)"
vector 353 TARPNetwork.node[2].wlan[0].mac.queue queueingTime:vector ETV
attr interpolationmode none
attr source queueingTime(packetPopped)
attr title "queueing times, vector"
attr unit s
vector 354 TARPNetwork.node[2].wlan[0].mac sentDownPk:vector(packetBytes) ETV
attr interpolationmode none
attr source packetSentToLower
attr title "packets sent to lower layer, vector(packetBytes)"
vector 355 TARPNetwork.node[9].wlan[0].mac rcvdPkFromLl:vector(packetBytes) ETV
attr interpolationmode none
attr source packetReceivedFromLower
attr title "packets received from lower layer, vector(packetBytes)"
vector 356 TARPNetwork.node[9].wlan[0].mac passedUpPk:vector(packetBytes) ETV
attr interpolationmode none
attr source packetSentToUpper
attr title "packets passed to higher layer, vector(packetBytes)"
vector 357 TARPNetwork.node[9].wlan[0].mac rcvdPkFromHl:vector(packetBytes) ETV
attr interpolationmode none
attr source packetReceivedFromUpper
attr title "packets received from higher layer, vector(packetBytes)"
vector 358 TARPNetwork.node[9].wlan[0].mac.queue packetPushed:vector(packetBytes) ETV
attr interpolationmode none
attr title "packet pushed, vector(packetBytes)"
vector 359 TARPNetwork.node[9].wlan[0].mac.queue queueLength:vector ETV
attr interpolationmode sample-hold
attr source "count(packetPushed) - count(packetPopped) - count(packetRemoved) - count(packetDropped)"
attr title "queue length, vector"
vector 360 TARPNetwork.node[9].wlan[0].mac.queue packetPopped:vector(packetBytes) ETV
attr interpolationmode none
attr title "packet popped, vector(packetBytes)"
vector 361 TARPNetwork.node[9].wlan[0].mac.queue queueingTime:vector ETV
attr interpolationmode none
attr source queueingTime(packetPopped)
attr title "queueing times, vector"
attr unit s
vector 362 TARPNetwork.node[9].wlan[0].mac sentDownPk:vector(packetBytes) ETV
attr interpolationmode none
attr source packetSentToLower
attr title "packets sent to lower layer, vector(packetBytes)"
vector 363 TARPNetwork.node[11].wlan[0].mac rcvdPkFromLl:vector(packetBytes) ETV
attr interpolationmode none
attr source packetReceivedFromLower
attr title "packets received from lower layer, vector(packetBytes)"
vector 364 TARPNetwork.node[11].wlan[0].mac passedUpPk:vector(packetBytes) ETV
attr interpolationmode none
attr source packetSentToUpper
attr title "packets passed to higher layer, vector(packetBytes)"
vector 365 TARPNetwork.node[11].wlan[0].mac rcvdPkFromHl:vector(packetBytes) ETV
attr interpolationmode none
attr source packetReceivedFromUpper
attr title "packets received from higher layer, vector(packetBytes)"
vector 366 TARPNetwork.node[11].wlan[0].mac.queue packetPushed:vector(packetBytes) ETV
attr interpolationmode none
attr title "packet pushed, vector(packetBytes)"
vector 367 TARPNetwork.node[11].wlan[0].mac.queue queueLength:vector ETV
attr interpolationmode sample-hold
attr source "count(packetPushed) - count(packetPopped) - count(packetRemoved) - count(packetDropped)"
attr title "queue length, vector"
vector 368 TARPNetwork.node[11].wlan[0].mac.queue packetPopped:vector(packetBytes) ETV
attr interpolationmode none
attr title "packet popped, vector(packetBytes)"
vector 369 TARPNetwork.node[11].wlan[0].mac.queue queueingTime:vector ETV
attr interpolationmode none
attr source queueingTime(packetPopped)
attr title "queueing times, vector"
attr unit s
vector 370 TARPNetwork.node[11].wlan[0].mac sentDownPk:vector(packetBytes) ETV
attr interpolationmode none
attr source packetSentToLower
attr title "packets sent to lower layer, vector(packetBytes)"
vector 371 TARPNetwork.node[54].wlan[0].mac rcvdPkFromLl:vector(packetBytes) ETV
attr interpolationmode none
attr source packetReceivedFromLower
attr title "packets received from lower layer, vector(packetBytes)"
vector 372 TARPNetwork.node[54].wlan[0].mac passedUpPk:vector(packetBytes) ETV
attr interpolationmode none
attr source packetSentToUpper
attr title "packets passed to higher layer, vector(packetBytes)"
vector 373 TARPNetwork.node[54].wlan[0].mac rcvdPkFromHl:vector(packetBytes) ETV
attr interpolationmode none
attr source packetReceivedFromUpper
attr title "packets received from higher layer, vector(packetBytes)"
vector 374 TARPNetwork.node[54].wlan[0].mac.queue packetPushed:vector(packetBytes) ETV
attr interpolationmode none
attr title "packet pushed, vector(packetBytes)"
vector 375 TARPNetwork.node[54].wlan[0].mac.queue queueLength:vector ETV
attr interpolationmode sample-hold
attr source "count(packetPushed) - count(packetPopped) - count(packetRemoved) - count(packetDropped)"
attr title "queue length, vector"
vector 376 TARPNetwork.node[54].wlan[0].mac.queue packetPopped:vector(packetBytes) ETV
attr interpolationmode none
attr title "packet popped, vector(packetBytes)"
vector 377 TARPNetwork.node[54].wlan[0].mac.queue queueingTime:vector ETV
attr interpolationmode none
attr source queueingTime(packetPopped)
attr title "queueing times, vector"
attr unit s
vector 378 TARPNetwork.node[54].wlan[0].mac sentDownPk:vector(packetBytes) ETV
attr interpolationmode none
attr source packetSentToLower
attr title "packets sent to lower layer, vector(packetBytes)"
vector 379 TARPNetwork.node[56].wlan[0].mac rcvdPkFromLl:vector(packetBytes) ETV
attr interpolationmode none
attr source packetReceivedFromLower
attr title "packets received from lower layer, vector(packetBytes)"
vector 380 TARPNetwork.node[56].wlan[0].mac passedUpPk:vector(packetBytes) ETV
attr interpolationmode none
attr source packetSentToUpper
attr title "packets passed to higher layer, vector(packetBytes)"
vector 381 TARPNetwork.node[56].wlan[0].mac rcvdPkFromHl:vector(packetBytes) ETV
attr interpolationmode none
attr source packetReceivedFromUpper
attr title "packets received from higher layer, vector(packetBytes)"
vector 382 TARPNetwork.node[56].wlan[0].mac.queue packetPushed:vector(packetBytes) ETV
attr interpolationmode none
attr title "packet pushed, vector(packetBytes)"
vector 383 TARPNetwork.node[56].wlan[0].mac.queue queueLength:vector ETV
attr interpolationmode sample-hold
attr source "count(packetPushed) - count(packetPopped) - count(packetRemoved) - count(packetDropped)"
attr title "queue length, vector"
vector 384 TARPNetwork.node[56].wlan[0].mac.queue packetPopped:vector(packetBytes) ETV
attr interpolationmode none
attr title "packet popped, vector(packetBytes)"
vector 385 TARPNetwork.node[56].wlan[0].mac.queue queueingTime:vector ETV
attr interpolationmode none
attr source queueingTime(packetPopped)
attr title "queueing times, vector"
attr unit s
vector 386 TARPNetwork.node[56].wlan[0].mac sentDownPk:vector(packetBytes) ETV
attr interpolationmode none
attr source packetSentToLower
attr title "packets sent to lower layer, vector(packetBytes)"
vector 387 TARPNetwork.node[25].wlan[0].mac rcvdPkFromLl:vector(packetBytes) ETV
attr interpolationmode none
attr source packetReceivedFromLower
attr title "packets received from lower layer, vector(packetBytes)"
vector 388 TARPNetwork.node[25].wlan[0].mac passedUpPk:vector(packetBytes) ETV
attr interpolationmode none
attr source packetSentToUpper
attr title "packets passed to higher layer, vector(packetBytes)"
vector 389 TARPNetwork.node[25].wlan[0].mac rcvdPkFromHl:vector(packetBytes) ETV
attr interpolationmode none
attr source packetReceivedFromUpper
attr title "packets received from higher layer, vector(packetBytes)"
vector 390 TARPNetwork.node[25].wlan[0].mac.queue packetPushed:vector(packetBytes) ETV
attr interpolationmode none
attr title "packet pushed, vector(packetBytes)"
vector 391 TARPNetwork.node[25].wlan[0].mac.queue queueLength:vector ETV
attr interpolationmode sample-hold
attr source "count(packetPushed) - count(packetPopped) - count(packetRemoved) - count(packetDropped)"
attr title "queue length, vector"
vector 392 TARPNetwork.node[25].wlan[0].mac.queue packetPopped:vector(packetBytes) ETV
attr interpolationmode none
attr title "packet popped, vector(packetBytes)"
vector 393 TARPNetwork.node[25].wlan[0].mac.queue queueingTime:vector ETV
attr interpolationmode none
attr source queueingTime(packetPopped)
attr title "queueing times, vector"
attr unit s
vector 394 TARPNetwork.node[25].wlan[0].mac sentDownPk:vector(packetBytes) ETV
attr interpolationmode none
attr source packetSentToLower
attr title "packets sent to lower layer, vector(packetBytes)"
vector 395 TARPNetwork.node[14].wlan[0].mac rcvdPkFromLl:vector(packetBytes) ETV
attr interpolationmode none
attr source packetReceivedFromLower
attr title "packets received from lower layer, vector(packetBytes)"
vector 396 TARPNetwork.node[14].wlan[0].mac passedUpPk:vector(packetBytes) ETV
attr interpolationmode none
attr source packetSentToUpper
attr title "packets passed to higher layer, vector(packetBytes)"
vector 397 TARPNetwork.node[14].wlan[0].mac rcvdPkFromHl:vector(packetBytes) ETV
attr interpolationmode none
attr source packetReceivedFromUpper
attr title "packets received from higher layer, vector(packetBytes)"
vector 398 TARPNetwork.node[14].wlan[0].mac.queue packetPushed:vector(packetBytes) ETV
attr interpolationmode none
attr title "packet pushed, vector(packetBytes)"
vector 399 TARPNetwork.node[14].wlan[0].mac.queue queueLength:vector ETV
attr interpolationmode sample-hold
attr source "count(packetPushed) - count(packetPopped) - count(packetRemoved) - count(packetDropped)"
attr title "queue length, vector"
vector 400 TARPNetwork.node[14].wlan[0].mac.queue packetPopped:vector(packetBytes) ETV
attr interpolationmode none
attr title "packet popped, vector(packetBytes)"
vector 401 TARPNetwork.node[14].wlan[0].mac.queue queueingTime:vector ETV
attr interpolationmode none
attr source queueingTime(packetPopped)
attr title "queueing times, vector"
attr unit s
vector 402 TARPNetwork.node[14].wlan[0].mac sentDownPk:vector(packetBytes) ETV
attr interpolationmode none
attr source packetSentToLower
attr title "packets sent to lower layer, vector(packetBytes)"
vector 403 TARPNetwork.node[42].wlan[0].mac rcvdPkFromLl:vector(packetBytes) ETV
attr interpolationmode none
attr source packetReceivedFromLower
attr title "packets received from lower layer, vector(packetBytes)"
vector 404 TARPNetwork.node[42].wlan[0].mac passedUpPk:vector(packetBytes) ETV
attr interpolationmode none
attr source packetSentToUpper
attr title "packets passed to higher layer, vector(packetBytes)"
vector 405 TARPNetwork.node[42].wlan[0].mac rcvdPkFromHl:vector(packetBytes) ETV
attr interpolationmode none
attr source packetReceivedFromUpper
attr title "packets received from higher layer, vector(packetBytes)"
vector 406 TARPNetwork.node[42].wlan[0].mac.queue packetPushed:vector(packetBytes) ETV
attr interpolationmode none
attr title "packet pushed, vector(packetBytes)"
vector 407 TARPNetwork.node[42].wlan[0].mac.queue queueLength:vector ETV
attr interpolationmode sample-hold
attr source "count(packetPushed) - count(packetPopped) - count(packetRemoved) - count(packetDropped)"
attr title "queue length, vector"
vector 408 TARPNetwork.node[42].wlan[0].mac.queue packetPopped:vector(packetBytes) ETV
attr interpolationmode none
attr title "packet popped, vector(packetBytes)"
vector 409 TARPNetwork.node[42].wlan[0].mac.queue queueingTime:vector ETV
attr interpolationmode none
attr source queueingTime(packetPopped)
attr title "queueing times, vector"
attr unit s
vector 410 TARPNetwork.node[42].wlan[0].mac sentDownPk:vector(packetBytes) ETV
attr interpolationmode none
attr source packetSentToLower
attr title "packets sent to lower layer, vector(packetBytes)"
vector 411 TARPNetwork.node[8].wlan[0].mac rcvdPkFromLl:vector(packetBytes) ETV
[...]
441	11578764 122 2758 1535564 1.003329922212 203.003329922212 4 0 0 0 0
442	11578886 126 2758 1535564 1.003329922212 203.003329922212 4 92 92 368 33856
443	11579012 47835 2804 2373651 1.003330022742 299.00499473266 1496 92 92 137632 12662144
444	11626847 47835 2804 2373651 1.003330022742 299.00499473266 1496 76 76 113696 8640896
445	11674682 19202 2806 2371888 1.003330022742 299.004162510779 598 76 76 45448 3454048
446	11693884 19202 2806 2371888 1.003330022742 299.004162510779 598 76 76 45448 3454048
447	11713086 37208 2806 2371888 1.003330022742 299.004162510779 1196 0 1 598 598
448	11750294 19202 2806 2371888 1.003330022742 299.004162510779 598 76 76 45448 3454048
449	11769496 18604 2806 2371888 1.003330022742 299.004162510779 598 0 0 0 0
450	11788100 19202 2806 2371888 1.003330022742 299.004162510779 598 92 92 55016 5061472
451	11807302 47731 2861 2373672 1.003330084805 299.004994780429 1496 92 92 137632 12662144
452	11855033 47731 2861 2373672 1.003330084805 299.004994780429 1496 76 76 113696 8640896
453	11902764 19202 2863 2372568 1.003330084805 299.004578629622 598 76 76 45448 3454048
454	11921966 19202 2863 2372568 1.003330084805 299.004578629622 598 76 76 45448 3454048
455	11941168 37208 2863 2372568 1.003330084805 299.004578629622 1196 0 1 598 598
456	11978376 19202 2863 2372568 1.003330084805 299.004578629622 598 76 76 45448 3454048
457	11997578 18604 2863 2372568 1.003330084805 299.004578629622 598 0 0 0 0
458	12016182 19202 2863 2372568 1.003330084805 299.004578629622 598 92 92 55016 5061472
459	12035384 48031 2868 2373686 1.003330087402 299.004994814095 1496 92 92 137632 12662144
460	12083415 48031 2868 2373686 1.003330087402 299.004994814095 1496 76 76 113696 8640896
461	12131446 19200 2870 2371857 1.003330087402 299.004162374995 598 76 76 45448 3454048
462	12150646 19200 2870 2371857 1.003330087402 299.004162374995 598 76 76 45448 3454048
463	12169846 37204 2870 2371857 1.003330087402 299.004162374995 1196 0 1 598 598
464	12207050 19200 2870 2371857 1.003330087402 299.004162374995 598 76 76 45448 3454048
465	12226250 18602 2870 2371857 1.003330087402 299.004162374995 598 0 0 0 0
466	12244852 19200 2870 2371857 1.003330087402 299.004162374995 598 92 92 55016 5061472
467	12264052 38014 3818 2373654 1.003745975138 299.00499473361 1193 92 92 109756 10097552
468	12302066 38014 3818 2373654 1.003745975138 299.00499473361 1193 76 76 90668 6890768
469	12340080 9600 3820 2371863 1.003745975138 299.004162464546 299 76 76 22724 1727024
470	12349680 9600 3820 2371863 1.003745975138 299.004162464546 299 76 76 22724 1727024
471	12359280 18602 3820 2371863 1.003745975138 299.004162464546 598 0 1 299 299
472	12377882 9600 3820 2371863 1.003745975138 299.004162464546 299 76 76 22724 1727024
473	12387482 9301 3820 2371863 1.003745975138 299.004162464546 299 0 0 0 0
474	12396783 9600 3820 2371863 1.003745975138 299.004162464546 299 92 92 27508 2530736
475	12406383 38110 3836 2373676 1.003746020133 299.004994786367 1193 92 92 109756 10097552
476	12444493 38110 3836 2373676 1.003746020133 299.004994786367 1193 76 76 90668 6890768
477	12482603 9600 3838 2371896 1.003746020133 299.004162514946 299 76 76 22724 1727024
478	12492203 9600 3838 2371896 1.003746020133 299.004162514946 299 76 76 22724 1727024
479	12501803 18602 3838 2371896 1.003746020133 299.004162514946 598 0 1 299 299
480	12520405 9600 3838 2371896 1.003746020133 299.004162514946 299 76 76 22724 1727024
481	12530005 9301 3838 2371896 1.003746020133 299.004162514946 299 0 0 0 0
482	12539306 9600 3838 2371896 1.003746020133 299.004162514946 299 92 92 27508 2530736
483	12548906 38404 3878 2373644 1.003746096387 299.004994704264 1196 92 92 110032 10122944
484	12587310 38404 3878 2373644 1.003746096387 299.004994704264 1196 76 76 90896 6908096
485	12625714 94 3880 1524273 1.003746096387 202.003746096387 3 76 76 228 17328
486	12625808 94 3880 1524273 1.003746096387 202.003746096387 3 76 76 228 17328
487	12625902 182 3880 1524273 1.003746096387 202.003746096387 6 0 1 3 3
488	12626084 94 3880 1524273 1.003746096387 202.003746096387 3 76 76 228 17328
489	12626178 91 3880 1524273 1.003746096387 202.003746096387 3 0 0 0 0
490	12626269 94 3880 1524273 1.003746096387 202.003746096387 3 92 92 276 25392
491	12626363 38310 3905 2373730 1.003746134951 299.004994888362 1193 92 92 109756 10097552
492	12664673 38310 3905 2373730 1.003746134951 299.004994888362 1193 76 76 90668 6890768
493	12702983 9600 3907 2371852 1.003746134951 299.004162298341 299 76 76 22724 1727024
494	12712583 9600 3907 2371852 1.003746134951 299.004162298341 299 76 76 22724 1727024
495	12722183 18602 3907 2371852 1.003746134951 299.004162298341 598 0 1 299 299
496	12740785 9600 3907 2371852 1.003746134951 299.004162298341 299 76 76 22724 1727024
497	12750385 9301 3907 2371852 1.003746134951 299.004162298341 299 0 0 0 0
498	12759686 9600 3907 2371852 1.003746134951 299.004162298341 299 92 92 27508 2530736
499	12769286 31809 3954 2372644 1.003746192082 299.00457873701 1001 92 92 92092 8472464
500	12801095 31809 3954 2372644 1.003746192082 299.00457873701 1001 76 76 76076 5781776
501	12832904 9600 3958 2371251 1.003746192082 299.003746192082 299 76 76 22724 1727024
502	12842504 9600 3958 2371251 1.003746192082 299.003746192082 299 76 76 22724 1727024
503	12852104 18602 3958 2371251 1.003746192082 299.003746192082 598 0 1 299 299
504	12870706 9600 3958 2371251 1.003746192082 299.003746192082 299 76 76 22724 1727024
505	12880306 9301 3958 2371251 1.003746192082 299.003746192082 299 0 0 0 0
506	12889607 9600 3958 2371251 1.003746192082 299.003746192082 299 92 92 27508 2530736
507	12899207 38273 4033 2373710 1.003746286962 299.00499488035 1198 92 92 110216 10139872
508	12937480 38273 4033 2373710 1.003746286962 299.00499488035 1198 76 76 91048 6919648
509	12975753 19200 4035 2371883 1.003746286962 299.004162504625 598 76 76 45448 3454048
510	12994953 19200 4035 2371883 1.003746286962 299.004162504625 598 76 76 45448 3454048
511	13014153 37204 4035 2371883 1.003746286962 299.004162504625 1196 0 1 598 598
512	13051357 19200 4035 2371883 1.003746286962 299.004162504625 598 76 76 45448 3454048
513	13070557 18602 4035 2371883 1.003746286962 299.004162504625 598 0 0 0 0
514	13089159 19200 4035 2371883 1.003746286962 299.004162504625 598 92 92 55016 5061472
515	13108359 38070 4084 2373748 1.003746354019 299.004994898836 1198 92 92 110216 10139872
516	13146429 38070 4084 2373748 1.003746354019 299.004994898836 1198 76 76 91048 6919648
517	13184499 158 4086 1536884 1.003746354019 203.003746354019 5 76 76 380 28880
518	13184657 158 4086 1536884 1.003746354019 203.003746354019 5 76 76 380 28880
519	13184815 306 4086 1536884 1.003746354019 203.003746354019 10 0 1 5 5
520	13185121 158 4086 1536884 1.003746354019 203.003746354019 5 76 76 380 28880
521	13185279 153 4086 1536884 1.003746354019 203.003746354019 5 0 0 0 0
522	13185432 158 4086 1536884 1.003746354019 203.003746354019 5 92 92 460 42320
523	13185590 19265 5091 2372658 1.004162473144 299.004578767579 600 92 92 55200 5078400
524	13204855 19265 5091 2372658 1.004162473144 299.004578767579 600 76 76 45600 3465600
525	13224120 6522 5093 2371873 1.004162473144 299.004162473144 199 76 76 15124 1149424
526	13230642 6522 5093 2371873 1.004162473144 299.004162473144 199 76 76 15124 1149424
527	13237164 12646 5093 2371873 1.004162473144 299.004162473144 398 0 1 199 199
528	13249810 6522 5093 2371873 1.004162473144 299.004162473144 199 76 76 15124 1149424
529	13256332 6323 5093 2371873 1.004162473144 299.004162473144 199 0 0 0 0
530	13262655 6522 5093 2371873 1.004162473144 299.004162473144 199 92 92 18308 1684336
531	13269177 19266 5115 2372606 1.004162514329 299.004578684614 600 92 92 55200 5078400
532	13288443 19266 5115 2372606 1.004162514329 299.004578684614 600 76 76 45600 3465600
533	13307709 125 5117 1525732 1.004162514329 202.004578684614 4 76 76 304 23104
534	13307834 125 5117 1525732 1.004162514329 202.004578684614 4 76 76 304 23104
535	13307959 242 5117 1525732 1.004162514329 202.004578684614 8 0 1 4 4
536	13308201 125 5117 1525732 1.004162514329 202.004578684614 4 76 76 304 23104
537	13308326 121 5117 1525732 1.004162514329 202.004578684614 4 0 0 0 0
538	13308447 125 5117 1525732 1.004162514329 202.004578684614 4 92 92 368 33856
539	13308572 19231 5147 2372690 1.004162587814 299.004578805477 602 92 92 55384 5095328
540	13327803 19231 5147 2372690 1.004162587814 299.004578805477 602 76 76 45752 3477152
541	13347034 185 5149 1546147 1.004162587814 204.004162587814 6 76 76 456 34656
542	13347219 185 5149 1546147 1.004162587814 204.004162587814 6 76 76 456 34656
543	13347404 358 5149 1546147 1.004162587814 204.004162587814 12 0 1 6 6
544	13347762 185 5149 1546147 1.004162587814 204.004162587814 6 76 76 456 34656
545	13347947 179 5149 1546147 1.004162587814 204.004162587814 6 0 0 0 0
546	13348126 185 5149 1546147 1.004162587814 204.004162587814 6 92 92 552 50784
547	13348311 345 5175 1546925 1.004162629437 204.004578721939 11 92 92 1012 93104
548	13348656 345 5175 1546925 1.004162629437 204.004578721939 11 76 76 836 63536
549	13349001 93 5177 1527263 1.004162629437 202.004995113321 3 76 76 228 17328
550	13349094 93 5177 1527263 1.004162629437 202.004995113321 3 76 76 228 17328
551	13349187 180 5177 1527263 1.004162629437 202.004995113321 6 0 1 3 3
552	13349367 93 5177 1527263 1.004162629437 202.004995113321 3 76 76 228 17328
553	13349460 90 5177 1527263 1.004162629437 202.004995113321 3 0 0 0 0
554	13349550 93 5177 1527263 1.004162629437 202.004995113321 3 92 92 276 25392
555	13349643 313 5185 1537896 1.00416265566 203.00416265566 10 92 92 920 84640
556	13349956 313 5185 1537896 1.00416265566 203.00416265566 10 76 76 760 57760
557	13350269 92 5187 1527295 1.00416265566 202.004995139544 3 76 76 228 17328
558	13350361 92 5187 1527295 1.00416265566 202.004995139544 3 76 76 228 17328
559	13350453 178 5187 1527295 1.00416265566 202.004995139544 6 0 1 3 3
560	13350631 92 5187 1527295 1.00416265566 202.004995139544 3 76 76 228 17328
561	13350723 89 5187 1527295 1.00416265566 202.004995139544 3 0 0 0 0
562	13350812 92 5187 1527295 1.00416265566 202.004995139544 3 92 92 276 25392
563	13350904 220 5200 1537909 1.00416268193 203.00416268193 7 92 92 644 59248
564	13351124 220 5200 1537909 1.00416268193 203.00416268193 7 76 76 532 40432
565	13351344 92 5202 1527322 1.00416268193 202.004995165814 3 76 76 228 17328
566	13351436 92 5202 1527322 1.00416268193 202.004995165814 3 76 76 228 17328
567	13351528 178 5202 1527322 1.00416268193 202.004995165814 6 0 1 3 3
568	13351706 92 5202 1527322 1.00416268193 202.004995165814 3 76 76 228 17328
569	13351798 89 5202 1527322 1.00416268193 202.004995165814 3 0 0 0 0
570	13351887 92 5202 1527322 1.00416268193 202.004995165814 3 92 92 276 25392
571	13351979 157 5985 1530000 1.004578863376 202.005827535525 5 92 92 460 42320
572	13352136 157 5985 1530000 1.004578863376 202.005827535525 5 76 76 380 28880
573	13352293 221 5998 1531221 1.004578909474 202.006243775766 7 92 92 644 59248
574	13352514 221 5998 1531221 1.004578909474 202.006243775766 7 76 76 532 40432
575	13352735 158 6009 1529986 1.004578925682 202.005827473219 5 92 92 460 42320
576	13352893 158 6009 1529986 1.004578925682 202.005827473219 5 76 76 380 28880
577	13353051 222 6015 1531218 1.004578935385 202.006243758936 7 92 92 644 59248
578	13353273 222 6015 1531218 1.004578935385 202.006243758936 7 76 76 532 40432
579	13353495 157 6025 1530004 1.004578964913 202.005827552028 5 92 92 460 42320
580	13353652 157 6025 1530004 1.004578964913 202.005827552028 5 76 76 380 28880
581	13353809 222 6029 1531226 1.004578967455 202.006243786925 7 92 92 644 59248
582	13354031 222 6029 1531226 1.004578967455 202.006243786925 7 76 76 532 40432
583	13354253 221 6033 1531209 1.004578968183 202.006243700643 7 92 92 644 59248
584	13354474 221 6033 1531209 1.004578968183 202.006243700643 7 76 76 532 40432
585	13354695 9791 7781 2376197 1.007908791587 299.007492384164 299 0 298 44551 8865649
586	13364486 13190 7781 2376197 1.007908791587 299.007492384164 299 0.007492384164 0.007908791587 2.240647394473 0.016791145188887
587	13377676 64 647114 1528668 101.005411425493 202.00541134726 2 76 76 152 11552
588	13377740 64 647114 1528668 101.005411425493 202.00541134726 2 76 76 152 11552
589	13377804 124 647114 1528668 101.005411425493 202.00541134726 4 0 1 2 2
590	13377928 64 647114 1528668 101.005411425493 202.00541134726 2 76 76 152 11552
591	13377992 62 647114 1528668 101.005411425493 202.00541134726 2 0 0 0 0
592	13378054 64 647114 1528668 101.005411425493 202.00541134726 2 92 92 184 16928
593	13378118 65 647147 1528697 101.005411471591 202.005411393358 2 76 76 152 11552
594	13378183 65 647147 1528697 101.005411471591 202.005411393358 2 76 76 152 11552
595	13378248 126 647147 1528697 101.005411471591 202.005411393358 4 0 1 2 2
596	13378374 65 647147 1528697 101.005411471591 202.005411393358 2 76 76 152 11552
597	13378439 63 647147 1528697 101.005411471591 202.005411393358 2 0 0 0 0
598	13378502 65 647147 1528697 101.005411471591 202.005411393358 2 92 92 184 16928
599	13378567 65 647165 1528713 101.005411487799 202.005411409566 2 76 76 152 11552
600	13378632 65 647165 1528713 101.005411487799 202.005411409566 2 76 76 152 11552
601	13378697 126 647165 1528713 101.005411487799 202.005411409566 4 0 1 2 2
602	13378823 65 647165 1528713 101.005411487799 202.005411409566 2 76 76 152 11552
603	13378888 63 647165 1528713 101.005411487799 202.005411409566 2 0 0 0 0
604	13378951 65 647165 1528713 101.005411487799 202.005411409566 2 92 92 184 16928
605	13379016 65 647177 1528723 101.005411497502 202.005411419269 2 76 76 152 11552
606	13379081 65 647177 1528723 101.005411497502 202.005411419269 2 76 76 152 11552
607	13379146 126 647177 1528723 101.005411497502 202.005411419269 4 0 1 2 2
608	13379272 65 647177 1528723 101.005411497502 202.005411419269 2 76 76 152 11552
609	13379337 63 647177 1528723 101.005411497502 202.005411419269 2 0 0 0 0
610	13379400 65 647177 1528723 101.005411497502 202.005411419269 2 92 92 184 16928
611	13379465 64 647198 1528750 101.00541152703 202.005411448797 2 76 76 152 11552
612	13379529 64 647198 1528750 101.00541152703 202.005411448797 2 76 76 152 11552
613	13379593 124 647198 1528750 101.00541152703 202.005411448797 4 0 1 2 2
614	13379717 64 647198 1528750 101.00541152703 202.005411448797 2 76 76 152 11552
615	13379781 62 647198 1528750 101.00541152703 202.005411448797 2 0 0 0 0
616	13379843 64 647198 1528750 101.00541152703 202.005411448797 2 92 92 184 16928
617	13379907 65 647204 1528756 101.005411529572 202.005411451339 2 76 76 152 11552
618	13379972 65 647204 1528756 101.005411529572 202.005411451339 2 76 76 152 11552
619	13380037 126 647204 1528756 101.005411529572 202.005411451339 4 0 1 2 2
620	13380163 65 647204 1528756 101.005411529572 202.005411451339 2 76 76 152 11552
621	13380228 63 647204 1528756 101.005411529572 202.005411451339 2 0 0 0 0
622	13380291 65 647204 1528756 101.005411529572 202.005411451339 2 92 92 184 16928
623	13380356 63 647210 1528761 101.0054115303 202.005411452067 2 76 76 152 11552
624	13380419 63 647210 1528761 101.0054115303 202.005411452067 2 76 76 152 11552
625	13380482 122 647210 1528761 101.0054115303 202.005411452067 4 0 1 2 2
626	13380604 63 647210 1528761 101.0054115303 202.005411452067 2 76 76 152 11552
627	13380667 61 647210 1528761 101.0054115303 202.005411452067 2 0 0 0 0
628	13380728 63 647210 1528761 101.0054115303 202.005411452067 2 92 92 184 16928
629	13380791 130 648459 1531254 101.005827654588 202.006243872872 4 92 92 368 33856
630	13380921 130 648459 1531254 101.005827654588 202.006243872872 4 76 76 304 23104
631	13381051 65 648461 1530014 101.005827654588 202.005827576355 2 76 76 152 11552
632	13381116 65 648461 1530014 101.005827654588 202.005827576355 2 76 76 152 11552
633	13381181 126 648461 1530014 101.005827654588 202.005827576355 4 0 1 2 2
634	13381307 65 648461 1530014 101.005827654588 202.005827576355 2 76 76 152 11552
635	13381372 63 648461 1530014 101.005827654588 202.005827576355 2 0 0 0 0
636	13381435 65 648461 1530014 101.005827654588 202.005827576355 2 92 92 184 16928
637	13381500 130 648468 1531203 101.005827662795 202.006243684263 4 92 92 368 33856
638	13381630 130 648468 1531203 101.005827662795 202.006243684263 4 76 76 304 23104
639	13381760 65 648470 1530023 101.005827662795 202.005827584562 2 76 76 152 11552
640	13381825 65 648470 1530023 101.005827662795 202.005827584562 2 76 76 152 11552
641	13381890 126 648470 1530023 101.005827662795 202.005827584562 4 0 1 2 2
642	13382016 65 648470 1530023 101.005827662795 202.005827584562 2 76 76 152 11552
643	13382081 63 648470 1530023 101.005827662795 202.005827584562 2 0 0 0 0
644	13382144 65 648470 1530023 101.005827662795 202.005827584562 2 92 92 184 16928
645	13382209 194 648491 1531919 101.005827697365 202.006659958968 6 92 92 552 50784
646	13382403 194 648491 1531919 101.005827697365 202.006659958968 6 76 76 456 34656
647	13382597 65 648493 1530046 101.005827697365 202.005827619132 2 76 76 152 11552
648	13382662 65 648493 1530046 101.005827697365 202.005827619132 2 76 76 152 11552
649	13382727 126 648493 1530046 101.005827697365 202.005827619132 4 0 1 2 2
650	13382853 65 648493 1530046 101.005827697365 202.005827619132 2 76 76 152 11552
651	13382918 63 648493 1530046 101.005827697365 202.005827619132 2 0 0 0 0
652	13382981 65 648493 1530046 101.005827697365 202.005827619132 2 92 92 184 16928
653	13383046 130 648498 1531193 101.005827701497 202.006243645561 4 92 92 368 33856
654	13383176 130 648498 1531193 101.005827701497 202.006243645561 4 76 76 304 23104
655	13383306 65 648500 1530053 101.005827701497 202.005827623264 2 76 76 152 11552
656	13383371 65 648500 1530053 101.005827701497 202.005827623264 2 76 76 152 11552
657	13383436 126 648500 1530053 101.005827701497 202.005827623264 4 0 1 2 2
658	13383562 65 648500 1530053 101.005827701497 202.005827623264 2 76 76 152 11552
659	13383627 63 648500 1530053 101.005827701497 202.005827623264 2 0 0 0 0
660	13383690 65 648500 1530053 101.005827701497 202.005827623264 2 92 92 184 16928
661	13383755 195 648509 1531924 101.005827724658 202.006660095323 6 92 92 552 50784
662	13383950 195 648509 1531924 101.005827724658 202.006660095323 6 76 76 456 34656
663	13384145 65 648511 1530064 101.005827724658 202.005827646425 2 76 76 152 11552
664	13384210 65 648511 1530064 101.005827724658 202.005827646425 2 76 76 152 11552
665	13384275 126 648511 1530064 101.005827724658 202.005827646425 4 0 1 2 2
666	13384401 65 648511 1530064 101.005827724658 202.005827646425 2 76 76 152 11552
667	13384466 63 648511 1530064 101.005827724658 202.005827646425 2 0 0 0 0
668	13384529 65 648511 1530064 101.005827724658 202.005827646425 2 92 92 184 16928
669	13384594 194 648528 1531907 101.005827759648 202.006659918799 6 92 92 552 50784
670	13384788 194 648528 1531907 101.005827759648 202.006659918799 6 76 76 456 34656
671	13384982 65 648530 1530083 101.005827759648 202.005827681415 2 76 76 152 11552
672	13385047 65 648530 1530083 101.005827759648 202.005827681415 2 76 76 152 11552
673	13385112 126 648530 1530083 101.005827759648 202.005827681415 4 0 1 2 2
674	13385238 65 648530 1530083 101.005827759648 202.005827681415 2 76 76 152 11552
675	13385303 63 648530 1530083 101.005827759648 202.005827681415 2 0 0 0 0
676	13385366 65 648530 1530083 101.005827759648 202.005827681415 2 92 92 184 16928
677	13385431 64 649676 1531229 101.006243867283 202.00624378905 2 92 92 184 16928
678	13385495 64 649676 1531229 101.006243867283 202.00624378905 2 76 76 152 11552
679	13385559 64 649678 1531231 101.006243867283 202.00624378905 2 76 76 152 11552
680	13385623 64 649678 1531231 101.006243867283 202.00624378905 2 76 76 152 11552
681	13385687 124 649678 1531231 101.006243867283 202.00624378905 4 0 1 2 2
682	13385811 64 649678 1531231 101.006243867283 202.00624378905 2 76 76 152 11552
683	13385875 62 649678 1531231 101.006243867283 202.00624378905 2 0 0 0 0
684	13385937 64 649678 1531231 101.006243867283 202.00624378905 2 92 92 184 16928

