version 2
run Static-0-20210910-21:43:28-14988
attr configname Static
attr datetime 20210910-21:43:28
attr experiment Static
attr inifile omnetpp.ini
attr iterationvars ""
attr iterationvarsf ""
attr measurement ""
attr network TARPNetwork
attr processid 14988
attr repetition 0
attr replication #0
attr resultdir results
attr runnumber 0
attr seedset 0
param **.node[*].mobility.typename "\"StationaryMobility\""
param **.mobility.constraintAreaMinZ 0m
param **.mobility.constraintAreaMaxZ 0m
param **.mobility.constraintAreaMinX 100m
param **.mobility.constraintAreaMinY 100m
param **.mobility.constraintAreaMaxX 500m
param **.mobility.constraintAreaMaxY 500m
param **.numNodes 40
param *.node*.typename "\"Node\""
param *.nodeA.numApps 1
param *.nodeA.app[0].typename "\"PingApp\""
param *.nodeA.app[0].destAddr "\"nodeB\""
param *.nodeA.app[0].startTime 1s
param **.wlan[*].typename "\"AckingWirelessInterface\""
param **.bitrate 2Mbps
param **.wlan[*].radio.transmitter.communicationRange 100m
param **.wlan[*].radio.transmitter.interferenceRange 0m
param **.wlan[*].radio.transmitter.detectionRange 0m
param **.wlan[*].radio.receiver.ignoreInterference true
param *.nodeA.wlan[0].radio.displayCommunicationRange true
param *.nodeB.wlan[0].radio.displayCommunicationRange true
param *.visualizer.dataLinkVisualizer.displayLinks true
param *.visualizer.networkRouteVisualizer.displayRoutes true
param *.visualizer.*LinkVisualizer.lineShift 0
param *.visualizer.networkRouteVisualizer.lineShift 0
param *.visualizer.networkRouteVisualizer.packetFilter "\"TARP*\""
param **.hasIpv4 false
param **.hasIpv6 false
param **.hasGn true
param **.forwarding true
param **.generic.typename "\"SimpleNetworkLayer\""
param **.generic.np.typename "\"TarpF\""
param **.app[*].networkProtocol "\"tarpf\""

vector 0 TARPNetwork.node[0].wlan[0].radio radioMode:vector ETV
attr interpolationmode sample-hold
attr source radioModeChanged
attr title "Radio mode, vector"
vector 1 TARPNetwork.node[1].wlan[0].radio radioMode:vector ETV
attr interpolationmode sample-hold
attr source radioModeChanged
attr title "Radio mode, vector"
vector 2 TARPNetwork.node[2].wlan[0].radio radioMode:vector ETV
attr interpolationmode sample-hold
attr source radioModeChanged
attr title "Radio mode, vector"
vector 3 TARPNetwork.node[3].wlan[0].radio radioMode:vector ETV
attr interpolationmode sample-hold
attr source radioModeChanged
attr title "Radio mode, vector"
vector 4 TARPNetwork.node[4].wlan[0].radio radioMode:vector ETV
attr interpolationmode sample-hold
attr source radioModeChanged
attr title "Radio mode, vector"
vector 5 TARPNetwork.node[5].wlan[0].radio radioMode:vector ETV
attr interpolationmode sample-hold
attr source radioModeChanged
attr title "Radio mode, vector"
vector 6 TARPNetwork.node[6].wlan[0].radio radioMode:vector ETV
attr interpolationmode sample-hold
attr source radioModeChanged
attr title "Radio mode, vector"
vector 7 TARPNetwork.node[7].wlan[0].radio radioMode:vector ETV
attr interpolationmode sample-hold
attr source radioModeChanged
attr title "Radio mode, vector"
vector 8 TARPNetwork.node[8].wlan[0].radio radioMode:vector ETV
attr interpolationmode sample-hold
attr source radioModeChanged
attr title "Radio mode, vector"
vector 9 TARPNetwork.node[9].wlan[0].radio radioMode:vector ETV
attr interpolationmode sample-hold
attr source radioModeChanged
attr title "Radio mode, vector"
vector 10 TARPNetwork.node[10].wlan[0].radio radioMode:vector ETV
attr interpolationmode sample-hold
attr source radioModeChanged
attr title "Radio mode, vector"
vector 11 TARPNetwork.node[11].wlan[0].radio radioMode:vector ETV
attr interpolationmode sample-hold
attr source radioModeChanged
attr title "Radio mode, vector"
vector 12 TARPNetwork.node[12].wlan[0].radio radioMode:vector ETV
attr interpolationmode sample-hold
attr source radioModeChanged
attr title "Radio mode, vector"
vector 13 TARPNetwork.node[13].wlan[0].radio radioMode:vector ETV
attr interpolationmode sample-hold
attr source radioModeChanged
attr title "Radio mode, vector"
vector 14 TARPNetwork.node[14].wlan[0].radio radioMode:vector ETV
attr interpolationmode sample-hold
attr source radioModeChanged
attr title "Radio mode, vector"
vector 15 TARPNetwork.node[15].wlan[0].radio radioMode:vector ETV
attr interpolationmode sample-hold
attr source radioModeChanged
attr title "Radio mode, vector"
vector 16 TARPNetwork.node[16].wlan[0].radio radioMode:vector ETV
attr interpolationmode sample-hold
attr source radioModeChanged
attr title "Radio mode, vector"
vector 17 TARPNetwork.node[17].wlan[0].radio radioMode:vector ETV
attr interpolationmode sample-hold
attr source radioModeChanged
attr title "Radio mode, vector"
vector 18 TARPNetwork.node[18].wlan[0].radio radioMode:vector ETV
attr interpolationmode sample-hold
attr source radioModeChanged
attr title "Radio mode, vector"
vector 19 TARPNetwork.node[19].wlan[0].radio radioMode:vector ETV
attr interpolationmode sample-hold
attr source radioModeChanged
attr title "Radio mode, vector"
vector 20 TARPNetwork.node[20].wlan[0].radio radioMode:vector ETV
attr interpolationmode sample-hold
attr source radioModeChanged
attr title "Radio mode, vector"
vector 21 TARPNetwork.node[21].wlan[0].radio radioMode:vector ETV
attr interpolationmode sample-hold
attr source radioModeChanged
attr title "Radio mode, vector"
vector 22 TARPNetwork.node[22].wlan[0].radio radioMode:vector ETV
attr interpolationmode sample-hold
attr source radioModeChanged
attr title "Radio mode, vector"
vector 23 TARPNetwork.node[23].wlan[0].radio radioMode:vector ETV
attr interpolationmode sample-hold
attr source radioModeChanged
attr title "Radio mode, vector"
vector 24 TARPNetwork.node[24].wlan[0].radio radioMode:vector ETV
attr interpolationmode sample-hold
attr source radioModeChanged
attr title "Radio mode, vector"
vector 25 TARPNetwork.node[25].wlan[0].radio radioMode:vector ETV
attr interpolationmode sample-hold
attr source radioModeChanged
attr title "Radio mode, vector"
vector 26 TARPNetwork.node[26].wlan[0].radio radioMode:vector ETV
attr interpolationmode sample-hold
attr source radioModeChanged
attr title "Radio mode, vector"
vector 27 TARPNetwork.node[27].wlan[0].radio radioMode:vector ETV
attr interpolationmode sample-hold
attr source radioModeChanged
attr title "Radio mode, vector"
vector 28 TARPNetwork.node[28].wlan[0].radio radioMode:vector ETV
attr interpolationmode sample-hold
attr source radioModeChanged
attr title "Radio mode, vector"
vector 29 TARPNetwork.node[29].wlan[0].radio radioMode:vector ETV
attr interpolationmode sample-hold
attr source radioModeChanged
attr title "Radio mode, vector"
vector 30 TARPNetwork.node[30].wlan[0].radio radioMode:vector ETV
attr interpolationmode sample-hold
attr source radioModeChanged
attr title "Radio mode, vector"
vector 31 TARPNetwork.node[31].wlan[0].radio radioMode:vector ETV
attr interpolationmode sample-hold
attr source radioModeChanged
attr title "Radio mode, vector"
vector 32 TARPNetwork.node[32].wlan[0].radio radioMode:vector ETV
attr interpolationmode sample-hold
attr source radioModeChanged
attr title "Radio mode, vector"
vector 33 TARPNetwork.node[33].wlan[0].radio radioMode:vector ETV
attr interpolationmode sample-hold
attr source radioModeChanged
attr title "Radio mode, vector"
vector 34 TARPNetwork.node[34].wlan[0].radio radioMode:vector ETV
attr interpolationmode sample-hold
attr source radioModeChanged
attr title "Radio mode, vector"
vector 35 TARPNetwork.node[35].wlan[0].radio radioMode:vector ETV
attr interpolationmode sample-hold
attr source radioModeChanged
attr title "Radio mode, vector"
vector 36 TARPNetwork.node[36].wlan[0].radio radioMode:vector ETV
attr interpolationmode sample-hold
attr source radioModeChanged
attr title "Radio mode, vector"
vector 37 TARPNetwork.node[37].wlan[0].radio radioMode:vector ETV
attr interpolationmode sample-hold
attr source radioModeChanged
attr title "Radio mode, vector"
vector 38 TARPNetwork.node[38].wlan[0].radio radioMode:vector ETV
attr interpolationmode sample-hold
attr source radioModeChanged
attr title "Radio mode, vector"
vector 39 TARPNetwork.node[39].wlan[0].radio radioMode:vector ETV
attr interpolationmode sample-hold
attr source radioModeChanged
attr title "Radio mode, vector"
vector 40 TARPNetwork.nodeA.wlan[0].radio radioMode:vector ETV
attr interpolationmode sample-hold
attr source radioModeChanged
attr title "Radio mode, vector"
vector 41 TARPNetwork.nodeB.wlan[0].radio radioMode:vector ETV
attr interpolationmode sample-hold
attr source radioModeChanged
attr title "Radio mode, vector"
vector 42 TARPNetwork.node[0].wlan[0].radio receptionState:vector ETV
attr interpolationmode sample-hold
attr source receptionStateChanged
attr title "Radio reception state, vector"
vector 43 TARPNetwork.node[0].wlan[0].radio transmissionState:vector ETV
attr interpolationmode sample-hold
attr source transmissionStateChanged
attr title "Radio transmission state, vector"
vector 44 TARPNetwork.node[1].wlan[0].radio receptionState:vector ETV
attr interpolationmode sample-hold
attr source receptionStateChanged
attr title "Radio reception state, vector"
vector 45 TARPNetwork.node[1].wlan[0].radio transmissionState:vector ETV
attr interpolationmode sample-hold
attr source transmissionStateChanged
attr title "Radio transmission state, vector"
vector 46 TARPNetwork.node[2].wlan[0].radio receptionState:vector ETV
attr interpolationmode sample-hold
attr source receptionStateChanged
attr title "Radio reception state, vector"
vector 47 TARPNetwork.node[2].wlan[0].radio transmissionState:vector ETV
attr interpolationmode sample-hold
attr source transmissionStateChanged
attr title "Radio transmission state, vector"
vector 48 TARPNetwork.node[3].wlan[0].radio receptionState:vector ETV
attr interpolationmode sample-hold
attr source receptionStateChanged
attr title "Radio reception state, vector"
vector 49 TARPNetwork.node[3].wlan[0].radio transmissionState:vector ETV
attr interpolationmode sample-hold
attr source transmissionStateChanged
attr title "Radio transmission state, vector"
vector 50 TARPNetwork.node[4].wlan[0].radio receptionState:vector ETV
attr interpolationmode sample-hold
attr source receptionStateChanged
attr title "Radio reception state, vector"
vector 51 TARPNetwork.node[4].wlan[0].radio transmissionState:vector ETV
attr interpolationmode sample-hold
attr source transmissionStateChanged
attr title "Radio transmission state, vector"
vector 52 TARPNetwork.node[5].wlan[0].radio receptionState:vector ETV
attr interpolationmode sample-hold
attr source receptionStateChanged
attr title "Radio reception state, vector"
vector 53 TARPNetwork.node[5].wlan[0].radio transmissionState:vector ETV
attr interpolationmode sample-hold
attr source transmissionStateChanged
attr title "Radio transmission state, vector"
vector 54 TARPNetwork.node[6].wlan[0].radio receptionState:vector ETV
attr interpolationmode sample-hold
attr source receptionStateChanged
attr title "Radio reception state, vector"
vector 55 TARPNetwork.node[6].wlan[0].radio transmissionState:vector ETV
attr interpolationmode sample-hold
attr source transmissionStateChanged
attr title "Radio transmission state, vector"
vector 56 TARPNetwork.node[7].wlan[0].radio receptionState:vector ETV
attr interpolationmode sample-hold
attr source receptionStateChanged
attr title "Radio reception state, vector"
vector 57 TARPNetwork.node[7].wlan[0].radio transmissionState:vector ETV
attr interpolationmode sample-hold
attr source transmissionStateChanged
attr title "Radio transmission state, vector"
vector 58 TARPNetwork.node[8].wlan[0].radio receptionState:vector ETV
attr interpolationmode sample-hold
attr source receptionStateChanged
attr title "Radio reception state, vector"
vector 59 TARPNetwork.node[8].wlan[0].radio transmissionState:vector ETV
attr interpolationmode sample-hold
attr source transmissionStateChanged
attr title "Radio transmission state, vector"
vector 60 TARPNetwork.node[9].wlan[0].radio receptionState:vector ETV
attr interpolationmode sample-hold
attr source receptionStateChanged
attr title "Radio reception state, vector"
vector 61 TARPNetwork.node[9].wlan[0].radio transmissionState:vector ETV
attr interpolationmode sample-hold
attr source transmissionStateChanged
attr title "Radio transmission state, vector"
vector 62 TARPNetwork.node[10].wlan[0].radio receptionState:vector ETV
attr interpolationmode sample-hold
attr source receptionStateChanged
attr title "Radio reception state, vector"
vector 63 TARPNetwork.node[10].wlan[0].radio transmissionState:vector ETV
attr interpolationmode sample-hold
attr source transmissionStateChanged
attr title "Radio transmission state, vector"
vector 64 TARPNetwork.node[11].wlan[0].radio receptionState:vector ETV
attr interpolationmode sample-hold
attr source receptionStateChanged
attr title "Radio reception state, vector"
vector 65 TARPNetwork.node[11].wlan[0].radio transmissionState:vector ETV
attr interpolationmode sample-hold
attr source transmissionStateChanged
attr title "Radio transmission state, vector"
vector 66 TARPNetwork.node[12].wlan[0].radio receptionState:vector ETV
attr interpolationmode sample-hold
attr source receptionStateChanged
attr title "Radio reception state, vector"
vector 67 TARPNetwork.node[12].wlan[0].radio transmissionState:vector ETV
attr interpolationmode sample-hold
attr source transmissionStateChanged
attr title "Radio transmission state, vector"
vector 68 TARPNetwork.node[13].wlan[0].radio receptionState:vector ETV
attr interpolationmode sample-hold
attr source receptionStateChanged
attr title "Radio reception state, vector"
vector 69 TARPNetwork.node[13].wlan[0].radio transmissionState:vector ETV
attr interpolationmode sample-hold
attr source transmissionStateChanged
attr title "Radio transmission state, vector"
vector 70 TARPNetwork.node[14].wlan[0].radio receptionState:vector ETV
attr interpolationmode sample-hold
attr source receptionStateChanged
attr title "Radio reception state, vector"
vector 71 TARPNetwork.node[14].wlan[0].radio transmissionState:vector ETV
attr interpolationmode sample-hold
attr source transmissionStateChanged
attr title "Radio transmission state, vector"
vector 72 TARPNetwork.node[15].wlan[0].radio receptionState:vector ETV
attr interpolationmode sample-hold
attr source receptionStateChanged
attr title "Radio reception state, vector"
vector 73 TARPNetwork.node[15].wlan[0].radio transmissionState:vector ETV
attr interpolationmode sample-hold
attr source transmissionStateChanged
attr title "Radio transmission state, vector"
vector 74 TARPNetwork.node[16].wlan[0].radio receptionState:vector ETV
attr interpolationmode sample-hold
attr source receptionStateChanged
attr title "Radio reception state, vector"
vector 75 TARPNetwork.node[16].wlan[0].radio transmissionState:vector ETV
attr interpolationmode sample-hold
attr source transmissionStateChanged
attr title "Radio transmission state, vector"
vector 76 TARPNetwork.node[17].wlan[0].radio receptionState:vector ETV
attr interpolationmode sample-hold
attr source receptionStateChanged
attr title "Radio reception state, vector"
vector 77 TARPNetwork.node[17].wlan[0].radio transmissionState:vector ETV
attr interpolationmode sample-hold
attr source transmissionStateChanged
attr title "Radio transmission state, vector"
vector 78 TARPNetwork.node[18].wlan[0].radio receptionState:vector ETV
attr interpolationmode sample-hold
attr source receptionStateChanged
attr title "Radio reception state, vector"
vector 79 TARPNetwork.node[18].wlan[0].radio transmissionState:vector ETV
attr interpolationmode sample-hold
attr source transmissionStateChanged
attr title "Radio transmission state, vector"
vector 80 TARPNetwork.node[19].wlan[0].radio receptionState:vector ETV
attr interpolationmode sample-hold
attr source receptionStateChanged
attr title "Radio reception state, vector"
vector 81 TARPNetwork.node[19].wlan[0].radio transmissionState:vector ETV
attr interpolationmode sample-hold
attr source transmissionStateChanged
attr title "Radio transmission state, vector"
vector 82 TARPNetwork.node[20].wlan[0].radio receptionState:vector ETV
attr interpolationmode sample-hold
attr source receptionStateChanged
attr title "Radio reception state, vector"
vector 83 TARPNetwork.node[20].wlan[0].radio transmissionState:vector ETV
attr interpolationmode sample-hold
attr source transmissionStateChanged
attr title "Radio transmission state, vector"
vector 84 TARPNetwork.node[21].wlan[0].radio receptionState:vector ETV
attr interpolationmode sample-hold
attr source receptionStateChanged
attr title "Radio reception state, vector"
vector 85 TARPNetwork.node[21].wlan[0].radio transmissionState:vector ETV
attr interpolationmode sample-hold
attr source transmissionStateChanged
attr title "Radio transmission state, vector"
vector 86 TARPNetwork.node[22].wlan[0].radio receptionState:vector ETV
attr interpolationmode sample-hold
attr source receptionStateChanged
attr title "Radio reception state, vector"
vector 87 TARPNetwork.node[22].wlan[0].radio transmissionState:vector ETV
attr interpolationmode sample-hold
attr source transmissionStateChanged
attr title "Radio transmission state, vector"
vector 88 TARPNetwork.node[23].wlan[0].radio receptionState:vector ETV
attr interpolationmode sample-hold
attr source receptionStateChanged
attr title "Radio reception state, vector"
vector 89 TARPNetwork.node[23].wlan[0].radio transmissionState:vector ETV
attr interpolationmode sample-hold
attr source transmissionStateChanged
attr title "Radio transmission state, vector"
vector 90 TARPNetwork.node[24].wlan[0].radio receptionState:vector ETV
attr interpolationmode sample-hold
attr source receptionStateChanged
attr title "Radio reception state, vector"
vector 91 TARPNetwork.node[24].wlan[0].radio transmissionState:vector ETV
attr interpolationmode sample-hold
attr source transmissionStateChanged
attr title "Radio transmission state, vector"
vector 92 TARPNetwork.node[25].wlan[0].radio receptionState:vector ETV
attr interpolationmode sample-hold
attr source receptionStateChanged
attr title "Radio reception state, vector"
vector 93 TARPNetwork.node[25].wlan[0].radio transmissionState:vector ETV
attr interpolationmode sample-hold
attr source transmissionStateChanged
attr title "Radio transmission state, vector"
vector 94 TARPNetwork.node[26].wlan[0].radio receptionState:vector ETV
attr interpolationmode sample-hold
attr source receptionStateChanged
attr title "Radio reception state, vector"
vector 95 TARPNetwork.node[26].wlan[0].radio transmissionState:vector ETV
attr interpolationmode sample-hold
attr source transmissionStateChanged
attr title "Radio transmission state, vector"
vector 96 TARPNetwork.node[27].wlan[0].radio receptionState:vector ETV
attr interpolationmode sample-hold
attr source receptionStateChanged
attr title "Radio reception state, vector"
vector 97 TARPNetwork.node[27].wlan[0].radio transmissionState:vector ETV
attr interpolationmode sample-hold
attr source transmissionStateChanged
attr title "Radio transmission state, vector"
vector 98 TARPNetwork.node[28].wlan[0].radio receptionState:vector ETV
attr interpolationmode sample-hold
attr source receptionStateChanged
attr title "Radio reception state, vector"
vector 99 TARPNetwork.node[28].wlan[0].radio transmissionState:vector ETV
attr interpolationmode sample-hold
attr source transmissionStateChanged
attr title "Radio transmission state, vector"
vector 100 TARPNetwork.node[29].wlan[0].radio receptionState:vector ETV
attr interpolationmode sample-hold
attr source receptionStateChanged
attr title "Radio reception state, vector"
vector 101 TARPNetwork.node[29].wlan[0].radio transmissionState:vector ETV
attr interpolationmode sample-hold
attr source transmissionStateChanged
attr title "Radio transmission state, vector"
vector 102 TARPNetwork.node[30].wlan[0].radio receptionState:vector ETV
attr interpolationmode sample-hold
attr source receptionStateChanged
attr title "Radio reception state, vector"
vector 103 TARPNetwork.node[30].wlan[0].radio transmissionState:vector ETV
attr interpolationmode sample-hold
attr source transmissionStateChanged
attr title "Radio transmission state, vector"
vector 104 TARPNetwork.node[31].wlan[0].radio receptionState:vector ETV
attr interpolationmode sample-hold
attr source receptionStateChanged
attr title "Radio reception state, vector"
vector 105 TARPNetwork.node[31].wlan[0].radio transmissionState:vector ETV
attr interpolationmode sample-hold
attr source transmissionStateChanged
attr title "Radio transmission state, vector"
vector 106 TARPNetwork.node[32].wlan[0].radio receptionState:vector ETV
attr interpolationmode sample-hold
attr source receptionStateChanged
attr title "Radio reception state, vector"
vector 107 TARPNetwork.node[32].wlan[0].radio transmissionState:vector ETV
attr interpolationmode sample-hold
attr source transmissionStateChanged
attr title "Radio transmission state, vector"
vector 108 TARPNetwork.node[33].wlan[0].radio receptionState:vector ETV
attr interpolationmode sample-hold
attr source receptionStateChanged
attr title "Radio reception state, vector"
vector 109 TARPNetwork.node[33].wlan[0].radio transmissionState:vector ETV
attr interpolationmode sample-hold
attr source transmissionStateChanged
attr title "Radio transmission state, vector"
vector 110 TARPNetwork.node[34].wlan[0].radio receptionState:vector ETV
attr interpolationmode sample-hold
attr source receptionStateChanged
attr title "Radio reception state, vector"
vector 111 TARPNetwork.node[34].wlan[0].radio transmissionState:vector ETV
attr interpolationmode sample-hold
attr source transmissionStateChanged
attr title "Radio transmission state, vector"
vector 112 TARPNetwork.node[35].wlan[0].radio receptionState:vector ETV
attr interpolationmode sample-hold
attr source receptionStateChanged
attr title "Radio reception state, vector"
vector 113 TARPNetwork.node[35].wlan[0].radio transmissionState:vector ETV
attr interpolationmode sample-hold
attr source transmissionStateChanged
attr title "Radio transmission state, vector"
vector 114 TARPNetwork.node[36].wlan[0].radio receptionState:vector ETV
attr interpolationmode sample-hold
attr source receptionStateChanged
attr title "Radio reception state, vector"
vector 115 TARPNetwork.node[36].wlan[0].radio transmissionState:vector ETV
attr interpolationmode sample-hold
attr source transmissionStateChanged
attr title "Radio transmission state, vector"
vector 116 TARPNetwork.node[37].wlan[0].radio receptionState:vector ETV
attr interpolationmode sample-hold
attr source receptionStateChanged
attr title "Radio reception state, vector"
vector 117 TARPNetwork.node[37].wlan[0].radio transmissionState:vector ETV
attr interpolationmode sample-hold
attr source transmissionStateChanged
attr title "Radio transmission state, vector"
vector 118 TARPNetwork.node[38].wlan[0].radio receptionState:vector ETV
attr interpolationmode sample-hold
attr source receptionStateChanged
attr title "Radio reception state, vector"
vector 119 TARPNetwork.node[38].wlan[0].radio transmissionState:vector ETV
attr interpolationmode sample-hold
attr source transmissionStateChanged
attr title "Radio transmission state, vector"
vector 120 TARPNetwork.node[39].wlan[0].radio receptionState:vector ETV
attr interpolationmode sample-hold
attr source receptionStateChanged
attr title "Radio reception state, vector"
vector 121 TARPNetwork.node[39].wlan[0].radio transmissionState:vector ETV
attr interpolationmode sample-hold
attr source transmissionStateChanged
attr title "Radio transmission state, vector"
vector 122 TARPNetwork.nodeA.wlan[0].radio receptionState:vector ETV
attr interpolationmode sample-hold
attr source receptionStateChanged
attr title "Radio reception state, vector"
vector 123 TARPNetwork.nodeA.wlan[0].radio transmissionState:vector ETV
attr interpolationmode sample-hold
attr source transmissionStateChanged
attr title "Radio transmission state, vector"
vector 124 TARPNetwork.nodeB.wlan[0].radio receptionState:vector ETV
attr interpolationmode sample-hold
attr source receptionStateChanged
attr title "Radio reception state, vector"
vector 125 TARPNetwork.nodeB.wlan[0].radio transmissionState:vector ETV
attr interpolationmode sample-hold
attr source transmissionStateChanged
attr title "Radio transmission state, vector"
vector 126 TARPNetwork.nodeA.app[0] pingTxSeq:vector ETV
attr interpolationmode none
attr title "ping tx seq, vector"
vector 127 TARPNetwork.nodeA.wlan[0].mac rcvdPkFromHl:vector(packetBytes) ETV
attr interpolationmode none
attr source packetReceivedFromUpper
attr title "packets received from higher layer, vector(packetBytes)"
vector 128 TARPNetwork.nodeA.wlan[0].mac.queue packetPushed:vector(packetBytes) ETV
attr interpolationmode none
attr title "packet pushed, vector(packetBytes)"
vector 129 TARPNetwork.nodeA.wlan[0].mac.queue queueLength:vector ETV
attr interpolationmode sample-hold
attr source "count(packetPushed) - count(packetPopped) - count(packetRemoved) - count(packetDropped)"
attr title "queue length, vector"
vector 130 TARPNetwork.nodeA.wlan[0].mac.queue packetPopped:vector(packetBytes) ETV
attr interpolationmode none
attr title "packet popped, vector(packetBytes)"
vector 131 TARPNetwork.nodeA.wlan[0].mac.queue queueingTime:vector ETV
attr interpolationmode none
attr source queueingTime(packetPopped)
attr title "queueing times, vector"
attr unit s
vector 132 TARPNetwork.nodeA.wlan[0].mac sentDownPk:vector(packetBytes) ETV
attr interpolationmode none
attr source packetSentToLower
attr title "packets sent to lower layer, vector(packetBytes)"
vector 133 TARPNetwork.node[0].wlan[0].mac rcvdPkFromLl:vector(packetBytes) ETV
attr interpolationmode none
attr source packetReceivedFromLower
attr title "packets received from lower layer, vector(packetBytes)"
vector 134 TARPNetwork.node[0].wlan[0].mac passedUpPk:vector(packetBytes) ETV
attr interpolationmode none
attr source packetSentToUpper
attr title "packets passed to higher layer, vector(packetBytes)"
vector 135 TARPNetwork.node[0].wlan[0].mac rcvdPkFromHl:vector(packetBytes) ETV
attr interpolationmode none
attr source packetReceivedFromUpper
attr title "packets received from higher layer, vector(packetBytes)"
vector 136 TARPNetwork.node[0].wlan[0].mac.queue packetPushed:vector(packetBytes) ETV
attr interpolationmode none
attr title "packet pushed, vector(packetBytes)"
vector 137 TARPNetwork.node[0].wlan[0].mac.queue queueLength:vector ETV
attr interpolationmode sample-hold
attr source "count(packetPushed) - count(packetPopped) - count(packetRemoved) - count(packetDropped)"
attr title "queue length, vector"
vector 138 TARPNetwork.node[0].wlan[0].mac.queue packetPopped:vector(packetBytes) ETV
attr interpolationmode none
attr title "packet popped, vector(packetBytes)"
vector 139 TARPNetwork.node[0].wlan[0].mac.queue queueingTime:vector ETV
attr interpolationmode none
attr source queueingTime(packetPopped)
attr title "queueing times, vector"
attr unit s
vector 140 TARPNetwork.node[0].wlan[0].mac sentDownPk:vector(packetBytes) ETV
attr interpolationmode none
attr source packetSentToLower
attr title "packets sent to lower layer, vector(packetBytes)"
vector 141 TARPNetwork.node[23].wlan[0].mac rcvdPkFromLl:vector(packetBytes) ETV
attr interpolationmode none
attr source packetReceivedFromLower
attr title "packets received from lower layer, vector(packetBytes)"
vector 142 TARPNetwork.node[23].wlan[0].mac passedUpPk:vector(packetBytes) ETV
attr interpolationmode none
attr source packetSentToUpper
attr title "packets passed to higher layer, vector(packetBytes)"
vector 143 TARPNetwork.node[23].wlan[0].mac rcvdPkFromHl:vector(packetBytes) ETV
attr interpolationmode none
attr source packetReceivedFromUpper
attr title "packets received from higher layer, vector(packetBytes)"
vector 144 TARPNetwork.node[23].wlan[0].mac.queue packetPushed:vector(packetBytes) ETV
attr interpolationmode none
attr title "packet pushed, vector(packetBytes)"
vector 145 TARPNetwork.node[23].wlan[0].mac.queue queueLength:vector ETV
attr interpolationmode sample-hold
attr source "count(packetPushed) - count(packetPopped) - count(packetRemoved) - count(packetDropped)"
attr title "queue length, vector"
vector 146 TARPNetwork.node[23].wlan[0].mac.queue packetPopped:vector(packetBytes) ETV
attr interpolationmode none
attr title "packet popped, vector(packetBytes)"
vector 147 TARPNetwork.node[23].wlan[0].mac.queue queueingTime:vector ETV
attr interpolationmode none
attr source queueingTime(packetPopped)
attr title "queueing times, vector"
attr unit s
vector 148 TARPNetwork.node[23].wlan[0].mac sentDownPk:vector(packetBytes) ETV
attr interpolationmode none
attr source packetSentToLower
attr title "packets sent to lower layer, vector(packetBytes)"
vector 149 TARPNetwork.node[16].wlan[0].mac rcvdPkFromLl:vector(packetBytes) ETV
attr interpolationmode none
attr source packetReceivedFromLower
attr title "packets received from lower layer, vector(packetBytes)"
vector 150 TARPNetwork.node[16].wlan[0].mac passedUpPk:vector(packetBytes) ETV
attr interpolationmode none
attr source packetSentToUpper
attr title "packets passed to higher layer, vector(packetBytes)"
vector 151 TARPNetwork.node[16].wlan[0].mac rcvdPkFromHl:vector(packetBytes) ETV
attr interpolationmode none
attr source packetReceivedFromUpper
attr title "packets received from higher layer, vector(packetBytes)"
vector 152 TARPNetwork.node[16].wlan[0].mac.queue packetPushed:vector(packetBytes) ETV
attr interpolationmode none
attr title "packet pushed, vector(packetBytes)"
vector 153 TARPNetwork.node[16].wlan[0].mac.queue queueLength:vector ETV
attr interpolationmode sample-hold
attr source "count(packetPushed) - count(packetPopped) - count(packetRemoved) - count(packetDropped)"
attr title "queue length, vector"
vector 154 TARPNetwork.node[16].wlan[0].mac.queue packetPopped:vector(packetBytes) ETV
attr interpolationmode none
attr title "packet popped, vector(packetBytes)"
vector 155 TARPNetwork.node[16].wlan[0].mac.queue queueingTime:vector ETV
attr interpolationmode none
attr source queueingTime(packetPopped)
attr title "queueing times, vector"
attr unit s
vector 156 TARPNetwork.node[16].wlan[0].mac sentDownPk:vector(packetBytes) ETV
attr interpolationmode none
attr source packetSentToLower
attr title "packets sent to lower layer, vector(packetBytes)"
vector 157 TARPNetwork.node[17].wlan[0].mac rcvdPkFromLl:vector(packetBytes) ETV
attr interpolationmode none
attr source packetReceivedFromLower
attr title "packets received from lower layer, vector(packetBytes)"
vector 158 TARPNetwork.node[17].wlan[0].mac passedUpPk:vector(packetBytes) ETV
attr interpolationmode none
attr source packetSentToUpper
attr title "packets passed to higher layer, vector(packetBytes)"
vector 159 TARPNetwork.node[17].wlan[0].mac rcvdPkFromHl:vector(packetBytes) ETV
attr interpolationmode none
attr source packetReceivedFromUpper
attr title "packets received from higher layer, vector(packetBytes)"
vector 160 TARPNetwork.node[17].wlan[0].mac.queue packetPushed:vector(packetBytes) ETV
attr interpolationmode none
attr title "packet pushed, vector(packetBytes)"
vector 161 TARPNetwork.node[17].wlan[0].mac.queue queueLength:vector ETV
attr interpolationmode sample-hold
attr source "count(packetPushed) - count(packetPopped) - count(packetRemoved) - count(packetDropped)"
attr title "queue length, vector"
vector 162 TARPNetwork.node[17].wlan[0].mac.queue packetPopped:vector(packetBytes) ETV
attr interpolationmode none
attr title "packet popped, vector(packetBytes)"
vector 163 TARPNetwork.node[17].wlan[0].mac.queue queueingTime:vector ETV
attr interpolationmode none
attr source queueingTime(packetPopped)
attr title "queueing times, vector"
attr unit s
vector 164 TARPNetwork.node[17].wlan[0].mac sentDownPk:vector(packetBytes) ETV
attr interpolationmode none
attr source packetSentToLower
attr title "packets sent to lower layer, vector(packetBytes)"
vector 165 TARPNetwork.node[13].wlan[0].mac rcvdPkFromLl:vector(packetBytes) ETV
attr interpolationmode none
attr source packetReceivedFromLower
attr title "packets received from lower layer, vector(packetBytes)"
vector 166 TARPNetwork.node[13].wlan[0].mac passedUpPk:vector(packetBytes) ETV
attr interpolationmode none
attr source packetSentToUpper
attr title "packets passed to higher layer, vector(packetBytes)"
vector 167 TARPNetwork.node[13].wlan[0].mac rcvdPkFromHl:vector(packetBytes) ETV
attr interpolationmode none
attr source packetReceivedFromUpper
attr title "packets received from higher layer, vector(packetBytes)"
vector 168 TARPNetwork.node[13].wlan[0].mac.queue packetPushed:vector(packetBytes) ETV
attr interpolationmode none
attr title "packet pushed, vector(packetBytes)"
vector 169 TARPNetwork.node[13].wlan[0].mac.queue queueLength:vector ETV
attr interpolationmode sample-hold
attr source "count(packetPushed) - count(packetPopped) - count(packetRemoved) - count(packetDropped)"
attr title "queue length, vector"
vector 170 TARPNetwork.node[13].wlan[0].mac.queue packetPopped:vector(packetBytes) ETV
attr interpolationmode none
attr title "packet popped, vector(packetBytes)"
vector 171 TARPNetwork.node[13].wlan[0].mac.queue queueingTime:vector ETV
attr interpolationmode none
attr source queueingTime(packetPopped)
attr title "queueing times, vector"
attr unit s
vector 172 TARPNetwork.node[13].wlan[0].mac sentDownPk:vector(packetBytes) ETV
attr interpolationmode none
attr source packetSentToLower
attr title "packets sent to lower layer, vector(packetBytes)"
vector 173 TARPNetwork.node[4].wlan[0].mac rcvdPkFromLl:vector(packetBytes) ETV
attr interpolationmode none
attr source packetReceivedFromLower
attr title "packets received from lower layer, vector(packetBytes)"
vector 174 TARPNetwork.node[4].wlan[0].mac passedUpPk:vector(packetBytes) ETV
attr interpolationmode none
attr source packetSentToUpper
attr title "packets passed to higher layer, vector(packetBytes)"
vector 175 TARPNetwork.node[4].wlan[0].mac rcvdPkFromHl:vector(packetBytes) ETV
attr interpolationmode none
attr source packetReceivedFromUpper
attr title "packets received from higher layer, vector(packetBytes)"
vector 176 TARPNetwork.node[4].wlan[0].mac.queue packetPushed:vector(packetBytes) ETV
attr interpolationmode none
attr title "packet pushed, vector(packetBytes)"
vector 177 TARPNetwork.node[4].wlan[0].mac.queue queueLength:vector ETV
attr interpolationmode sample-hold
attr source "count(packetPushed) - count(packetPopped) - count(packetRemoved) - count(packetDropped)"
attr title "queue length, vector"
vector 178 TARPNetwork.node[4].wlan[0].mac.queue packetPopped:vector(packetBytes) ETV
attr interpolationmode none
attr title "packet popped, vector(packetBytes)"
vector 179 TARPNetwork.node[4].wlan[0].mac.queue queueingTime:vector ETV
attr interpolationmode none
attr source queueingTime(packetPopped)
attr title "queueing times, vector"
attr unit s
vector 180 TARPNetwork.node[4].wlan[0].mac sentDownPk:vector(packetBytes) ETV
attr interpolationmode none
attr source packetSentToLower
attr title "packets sent to lower layer, vector(packetBytes)"
vector 181 TARPNetwork.node[30].wlan[0].mac rcvdPkFromLl:vector(packetBytes) ETV
attr interpolationmode none
attr source packetReceivedFromLower
attr title "packets received from lower layer, vector(packetBytes)"
vector 182 TARPNetwork.node[30].wlan[0].mac passedUpPk:vector(packetBytes) ETV
attr interpolationmode none
attr source packetSentToUpper
attr title "packets passed to higher layer, vector(packetBytes)"
vector 183 TARPNetwork.node[30].wlan[0].mac rcvdPkFromHl:vector(packetBytes) ETV
attr interpolationmode none
attr source packetReceivedFromUpper
attr title "packets received from higher layer, vector(packetBytes)"
vector 184 TARPNetwork.node[30].wlan[0].mac.queue packetPushed:vector(packetBytes) ETV
attr interpolationmode none
attr title "packet pushed, vector(packetBytes)"
vector 185 TARPNetwork.node[30].wlan[0].mac.queue queueLength:vector ETV
attr interpolationmode sample-hold
attr source "count(packetPushed) - count(packetPopped) - count(packetRemoved) - count(packetDropped)"
attr title "queue length, vector"
vector 186 TARPNetwork.node[30].wlan[0].mac.queue packetPopped:vector(packetBytes) ETV
attr interpolationmode none
attr title "packet popped, vector(packetBytes)"
vector 187 TARPNetwork.node[30].wlan[0].mac.queue queueingTime:vector ETV
attr interpolationmode none
attr source queueingTime(packetPopped)
attr title "queueing times, vector"
attr unit s
vector 188 TARPNetwork.node[30].wlan[0].mac sentDownPk:vector(packetBytes) ETV
attr interpolationmode none
attr source packetSentToLower
attr title "packets sent to lower layer, vector(packetBytes)"
vector 189 TARPNetwork.nodeA.wlan[0].mac rcvdPkFromLl:vector(packetBytes) ETV
attr interpolationmode none
attr source packetReceivedFromLower
attr title "packets received from lower layer, vector(packetBytes)"
vector 190 TARPNetwork.nodeA.wlan[0].mac passedUpPk:vector(packetBytes) ETV
attr interpolationmode none
attr source packetSentToUpper
attr title "packets passed to higher layer, vector(packetBytes)"
vector 191 TARPNetwork.node[10].wlan[0].mac rcvdPkFromLl:vector(packetBytes) ETV
attr interpolationmode none
attr source packetReceivedFromLower
attr title "packets received from lower layer, vector(packetBytes)"
vector 192 TARPNetwork.node[10].wlan[0].mac passedUpPk:vector(packetBytes) ETV
attr interpolationmode none
attr source packetSentToUpper
attr title "packets passed to higher layer, vector(packetBytes)"
vector 193 TARPNetwork.node[10].wlan[0].mac rcvdPkFromHl:vector(packetBytes) ETV
attr interpolationmode none
attr source packetReceivedFromUpper
attr title "packets received from higher layer, vector(packetBytes)"
vector 194 TARPNetwork.node[10].wlan[0].mac.queue packetPushed:vector(packetBytes) ETV
attr interpolationmode none
attr title "packet pushed, vector(packetBytes)"
vector 195 TARPNetwork.node[10].wlan[0].mac.queue queueLength:vector ETV
attr interpolationmode sample-hold
attr source "count(packetPushed) - count(packetPopped) - count(packetRemoved) - count(packetDropped)"
attr title "queue length, vector"
vector 196 TARPNetwork.node[10].wlan[0].mac.queue packetPopped:vector(packetBytes) ETV
attr interpolationmode none
attr title "packet popped, vector(packetBytes)"
vector 197 TARPNetwork.node[10].wlan[0].mac.queue queueingTime:vector ETV
attr interpolationmode none
attr source queueingTime(packetPopped)
attr title "queueing times, vector"
attr unit s
vector 198 TARPNetwork.node[10].wlan[0].mac sentDownPk:vector(packetBytes) ETV
attr interpolationmode none
attr source packetSentToLower
attr title "packets sent to lower layer, vector(packetBytes)"
vector 199 TARPNetwork.node[7].wlan[0].mac rcvdPkFromLl:vector(packetBytes) ETV
attr interpolationmode none
attr source packetReceivedFromLower
attr title "packets received from lower layer, vector(packetBytes)"
vector 200 TARPNetwork.node[7].wlan[0].mac passedUpPk:vector(packetBytes) ETV
attr interpolationmode none
attr source packetSentToUpper
attr title "packets passed to higher layer, vector(packetBytes)"
vector 201 TARPNetwork.node[7].wlan[0].mac rcvdPkFromHl:vector(packetBytes) ETV
attr interpolationmode none
attr source packetReceivedFromUpper
attr title "packets received from higher layer, vector(packetBytes)"
vector 202 TARPNetwork.node[7].wlan[0].mac.queue packetPushed:vector(packetBytes) ETV
attr interpolationmode none
attr title "packet pushed, vector(packetBytes)"
vector 203 TARPNetwork.node[7].wlan[0].mac.queue queueLength:vector ETV
attr interpolationmode sample-hold
attr source "count(packetPushed) - count(packetPopped) - count(packetRemoved) - count(packetDropped)"
attr title "queue length, vector"
vector 204 TARPNetwork.node[7].wlan[0].mac.queue packetPopped:vector(packetBytes) ETV
attr interpolationmode none
attr title "packet popped, vector(packetBytes)"
vector 205 TARPNetwork.node[7].wlan[0].mac.queue queueingTime:vector ETV
attr interpolationmode none
attr source queueingTime(packetPopped)
attr title "queueing times, vector"
attr unit s
vector 206 TARPNetwork.node[7].wlan[0].mac sentDownPk:vector(packetBytes) ETV
attr interpolationmode none
attr source packetSentToLower
attr title "packets sent to lower layer, vector(packetBytes)"
vector 207 TARPNetwork.node[12].wlan[0].mac rcvdPkFromLl:vector(packetBytes) ETV
attr interpolationmode none
attr source packetReceivedFromLower
attr title "packets received from lower layer, vector(packetBytes)"
vector 208 TARPNetwork.node[12].wlan[0].mac passedUpPk:vector(packetBytes) ETV
attr interpolationmode none
attr source packetSentToUpper
attr title "packets passed to higher layer, vector(packetBytes)"
vector 209 TARPNetwork.node[12].wlan[0].mac rcvdPkFromHl:vector(packetBytes) ETV
attr interpolationmode none
attr source packetReceivedFromUpper
attr title "packets received from higher layer, vector(packetBytes)"
vector 210 TARPNetwork.node[12].wlan[0].mac.queue packetPushed:vector(packetBytes) ETV
attr interpolationmode none
attr title "packet pushed, vector(packetBytes)"
vector 211 TARPNetwork.node[12].wlan[0].mac.queue queueLength:vector ETV
attr interpolationmode sample-hold
attr source "count(packetPushed) - count(packetPopped) - count(packetRemoved) - count(packetDropped)"
attr title "queue length, vector"
vector 212 TARPNetwork.node[12].wlan[0].mac.queue packetPopped:vector(packetBytes) ETV
attr interpolationmode none
attr title "packet popped, vector(packetBytes)"
vector 213 TARPNetwork.node[12].wlan[0].mac.queue queueingTime:vector ETV
attr interpolationmode none
attr source queueingTime(packetPopped)
attr title "queueing times, vector"
attr unit s
vector 214 TARPNetwork.node[12].wlan[0].mac sentDownPk:vector(packetBytes) ETV
attr interpolationmode none
attr source packetSentToLower
attr title "packets sent to lower layer, vector(packetBytes)"
vector 215 TARPNetwork.node[14].wlan[0].mac rcvdPkFromLl:vector(packetBytes) ETV
attr interpolationmode none
attr source packetReceivedFromLower
attr title "packets received from lower layer, vector(packetBytes)"
vector 216 TARPNetwork.node[14].wlan[0].mac passedUpPk:vector(packetBytes) ETV
attr interpolationmode none
attr source packetSentToUpper
attr title "packets passed to higher layer, vector(packetBytes)"
vector 217 TARPNetwork.node[14].wlan[0].mac rcvdPkFromHl:vector(packetBytes) ETV
attr interpolationmode none
attr source packetReceivedFromUpper
attr title "packets received from higher layer, vector(packetBytes)"
vector 218 TARPNetwork.node[14].wlan[0].mac.queue packetPushed:vector(packetBytes) ETV
attr interpolationmode none
attr title "packet pushed, vector(packetBytes)"
vector 219 TARPNetwork.node[14].wlan[0].mac.queue queueLength:vector ETV
attr interpolationmode sample-hold
attr source "count(packetPushed) - count(packetPopped) - count(packetRemoved) - count(packetDropped)"
attr title "queue length, vector"
vector 220 TARPNetwork.node[14].wlan[0].mac.queue packetPopped:vector(packetBytes) ETV
attr interpolationmode none
attr title "packet popped, vector(packetBytes)"
vector 221 TARPNetwork.node[14].wlan[0].mac.queue queueingTime:vector ETV
attr interpolationmode none
attr source queueingTime(packetPopped)
attr title "queueing times, vector"
attr unit s
vector 222 TARPNetwork.node[14].wlan[0].mac sentDownPk:vector(packetBytes) ETV
attr interpolationmode none
attr source packetSentToLower
attr title "packets sent to lower layer, vector(packetBytes)"
vector 223 TARPNetwork.node[3].wlan[0].mac rcvdPkFromLl:vector(packetBytes) ETV
attr interpolationmode none
attr source packetReceivedFromLower
attr title "packets received from lower layer, vector(packetBytes)"
vector 224 TARPNetwork.node[3].wlan[0].mac passedUpPk:vector(packetBytes) ETV
attr interpolationmode none
attr source packetSentToUpper
attr title "packets passed to higher layer, vector(packetBytes)"
vector 225 TARPNetwork.node[3].wlan[0].mac rcvdPkFromHl:vector(packetBytes) ETV
attr interpolationmode none
attr source packetReceivedFromUpper
attr title "packets received from higher layer, vector(packetBytes)"
vector 226 TARPNetwork.node[3].wlan[0].mac.queue packetPushed:vector(packetBytes) ETV
attr interpolationmode none
attr title "packet pushed, vector(packetBytes)"
vector 227 TARPNetwork.node[3].wlan[0].mac.queue queueLength:vector ETV
attr interpolationmode sample-hold
attr source "count(packetPushed) - count(packetPopped) - count(packetRemoved) - count(packetDropped)"
attr title "queue length, vector"
vector 228 TARPNetwork.node[3].wlan[0].mac.queue packetPopped:vector(packetBytes) ETV
attr interpolationmode none
attr title "packet popped, vector(packetBytes)"
vector 229 TARPNetwork.node[3].wlan[0].mac.queue queueingTime:vector ETV
attr interpolationmode none
attr source queueingTime(packetPopped)
attr title "queueing times, vector"
attr unit s
vector 230 TARPNetwork.node[3].wlan[0].mac sentDownPk:vector(packetBytes) ETV
attr interpolationmode none
attr source packetSentToLower
attr title "packets sent to lower layer, vector(packetBytes)"
vector 231 TARPNetwork.node[15].wlan[0].mac rcvdPkFromLl:vector(packetBytes) ETV
attr interpolationmode none
attr source packetReceivedFromLower
attr title "packets received from lower layer, vector(packetBytes)"
vector 232 TARPNetwork.node[15].wlan[0].mac passedUpPk:vector(packetBytes) ETV
attr interpolationmode none
attr source packetSentToUpper
attr title "packets passed to higher layer, vector(packetBytes)"
vector 233 TARPNetwork.node[15].wlan[0].mac rcvdPkFromHl:vector(packetBytes) ETV
attr interpolationmode none
attr source packetReceivedFromUpper
attr title "packets received from higher layer, vector(packetBytes)"
vector 234 TARPNetwork.node[15].wlan[0].mac.queue packetPushed:vector(packetBytes) ETV
attr interpolationmode none
attr title "packet pushed, vector(packetBytes)"
vector 235 TARPNetwork.node[15].wlan[0].mac.queue queueLength:vector ETV
attr interpolationmode sample-hold
attr source "count(packetPushed) - count(packetPopped) - count(packetRemoved) - count(packetDropped)"
attr title "queue length, vector"
vector 236 TARPNetwork.node[15].wlan[0].mac.queue packetPopped:vector(packetBytes) ETV
attr interpolationmode none
attr title "packet popped, vector(packetBytes)"
vector 237 TARPNetwork.node[15].wlan[0].mac.queue queueingTime:vector ETV
attr interpolationmode none
attr source queueingTime(packetPopped)
attr title "queueing times, vector"
attr unit s
vector 238 TARPNetwork.node[15].wlan[0].mac sentDownPk:vector(packetBytes) ETV
attr interpolationmode none
attr source packetSentToLower
attr title "packets sent to lower layer, vector(packetBytes)"
vector 239 TARPNetwork.node[22].wlan[0].mac rcvdPkFromLl:vector(packetBytes) ETV
attr interpolationmode none
attr source packetReceivedFromLower
attr title "packets received from lower layer, vector(packetBytes)"
vector 240 TARPNetwork.node[22].wlan[0].mac passedUpPk:vector(packetBytes) ETV
attr interpolationmode none
attr source packetSentToUpper
attr title "packets passed to higher layer, vector(packetBytes)"
vector 241 TARPNetwork.node[22].wlan[0].mac rcvdPkFromHl:vector(packetBytes) ETV
attr interpolationmode none
attr source packetReceivedFromUpper
attr title "packets received from higher layer, vector(packetBytes)"
vector 242 TARPNetwork.node[22].wlan[0].mac.queue packetPushed:vector(packetBytes) ETV
attr interpolationmode none
attr title "packet pushed, vector(packetBytes)"
vector 243 TARPNetwork.node[22].wlan[0].mac.queue queueLength:vector ETV
attr interpolationmode sample-hold
attr source "count(packetPushed) - count(packetPopped) - count(packetRemoved) - count(packetDropped)"
attr title "queue length, vector"
vector 244 TARPNetwork.node[22].wlan[0].mac.queue packetPopped:vector(packetBytes) ETV
attr interpolationmode none
attr title "packet popped, vector(packetBytes)"
vector 245 TARPNetwork.node[22].wlan[0].mac.queue queueingTime:vector ETV
attr interpolationmode none
attr source queueingTime(packetPopped)
attr title "queueing times, vector"
attr unit s
vector 246 TARPNetwork.node[22].wlan[0].mac sentDownPk:vector(packetBytes) ETV
attr interpolationmode none
attr source packetSentToLower
attr title "packets sent to lower layer, vector(packetBytes)"
vector 247 TARPNetwork.node[39].wlan[0].mac rcvdPkFromLl:vector(packetBytes) ETV
attr interpolationmode none
attr source packetReceivedFromLower
attr title "packets received from lower layer, vector(packetBytes)"
vector 248 TARPNetwork.node[39].wlan[0].mac passedUpPk:vector(packetBytes) ETV
attr interpolationmode none
attr source packetSentToUpper
attr title "packets passed to higher layer, vector(packetBytes)"
vector 249 TARPNetwork.node[39].wlan[0].mac rcvdPkFromHl:vector(packetBytes) ETV
attr interpolationmode none
attr source packetReceivedFromUpper
attr title "packets received from higher layer, vector(packetBytes)"
vector 250 TARPNetwork.node[39].wlan[0].mac.queue packetPushed:vector(packetBytes) ETV
attr interpolationmode none
attr title "packet pushed, vector(packetBytes)"
vector 251 TARPNetwork.node[39].wlan[0].mac.queue queueLength:vector ETV
attr interpolationmode sample-hold
attr source "count(packetPushed) - count(packetPopped) - count(packetRemoved) - count(packetDropped)"
attr title "queue length, vector"
vector 252 TARPNetwork.node[39].wlan[0].mac.queue packetPopped:vector(packetBytes) ETV
attr interpolationmode none
attr title "packet popped, vector(packetBytes)"
vector 253 TARPNetwork.node[39].wlan[0].mac.queue queueingTime:vector ETV
attr interpolationmode none
attr source queueingTime(packetPopped)
attr title "queueing times, vector"
attr unit s
vector 254 TARPNetwork.node[39].wlan[0].mac sentDownPk:vector(packetBytes) ETV
attr interpolationmode none
attr source packetSentToLower
attr title "packets sent to lower layer, vector(packetBytes)"
vector 255 TARPNetwork.node[35].wlan[0].mac rcvdPkFromLl:vector(packetBytes) ETV
attr interpolationmode none
attr source packetReceivedFromLower
attr title "packets received from lower layer, vector(packetBytes)"
vector 256 TARPNetwork.node[35].wlan[0].mac passedUpPk:vector(packetBytes) ETV
attr interpolationmode none
attr source packetSentToUpper
attr title "packets passed to higher layer, vector(packetBytes)"
vector 257 TARPNetwork.node[35].wlan[0].mac rcvdPkFromHl:vector(packetBytes) ETV
attr interpolationmode none
attr source packetReceivedFromUpper
attr title "packets received from higher layer, vector(packetBytes)"
vector 258 TARPNetwork.node[35].wlan[0].mac.queue packetPushed:vector(packetBytes) ETV
attr interpolationmode none
attr title "packet pushed, vector(packetBytes)"
vector 259 TARPNetwork.node[35].wlan[0].mac.queue queueLength:vector ETV
attr interpolationmode sample-hold
attr source "count(packetPushed) - count(packetPopped) - count(packetRemoved) - count(packetDropped)"
attr title "queue length, vector"
vector 260 TARPNetwork.node[35].wlan[0].mac.queue packetPopped:vector(packetBytes) ETV
attr interpolationmode none
attr title "packet popped, vector(packetBytes)"
vector 261 TARPNetwork.node[35].wlan[0].mac.queue queueingTime:vector ETV
attr interpolationmode none
attr source queueingTime(packetPopped)
attr title "queueing times, vector"
attr unit s
vector 262 TARPNetwork.node[35].wlan[0].mac sentDownPk:vector(packetBytes) ETV
attr interpolationmode none
attr source packetSentToLower
attr title "packets sent to lower layer, vector(packetBytes)"
vector 263 TARPNetwork.node[20].wlan[0].mac rcvdPkFromLl:vector(packetBytes) ETV
attr interpolationmode none
attr source packetReceivedFromLower
attr title "packets received from lower layer, vector(packetBytes)"
vector 264 TARPNetwork.node[20].wlan[0].mac passedUpPk:vector(packetBytes) ETV
attr interpolationmode none
attr source packetSentToUpper
attr title "packets passed to higher layer, vector(packetBytes)"
vector 265 TARPNetwork.node[20].wlan[0].mac rcvdPkFromHl:vector(packetBytes) ETV
attr interpolationmode none
attr source packetReceivedFromUpper
attr title "packets received from higher layer, vector(packetBytes)"
vector 266 TARPNetwork.node[20].wlan[0].mac.queue packetPushed:vector(packetBytes) ETV
attr interpolationmode none
attr title "packet pushed, vector(packetBytes)"
vector 267 TARPNetwork.node[20].wlan[0].mac.queue queueLength:vector ETV
attr interpolationmode sample-hold
attr source "count(packetPushed) - count(packetPopped) - count(packetRemoved) - count(packetDropped)"
attr title "queue length, vector"
vector 268 TARPNetwork.node[20].wlan[0].mac.queue packetPopped:vector(packetBytes) ETV
attr interpolationmode none
attr title "packet popped, vector(packetBytes)"
vector 269 TARPNetwork.node[20].wlan[0].mac.queue queueingTime:vector ETV
attr interpolationmode none
attr source queueingTime(packetPopped)
attr title "queueing times, vector"
attr unit s
vector 270 TARPNetwork.node[20].wlan[0].mac sentDownPk:vector(packetBytes) ETV
attr interpolationmode none
attr source packetSentToLower
attr title "packets sent to lower layer, vector(packetBytes)"
vector 271 TARPNetwork.node[28].wlan[0].mac rcvdPkFromLl:vector(packetBytes) ETV
attr interpolationmode none
attr source packetReceivedFromLower
attr title "packets received from lower layer, vector(packetBytes)"
vector 272 TARPNetwork.node[28].wlan[0].mac passedUpPk:vector(packetBytes) ETV
attr interpolationmode none
attr source packetSentToUpper
attr title "packets passed to higher layer, vector(packetBytes)"
vector 273 TARPNetwork.node[28].wlan[0].mac rcvdPkFromHl:vector(packetBytes) ETV
attr interpolationmode none
attr source packetReceivedFromUpper
attr title "packets received from higher layer, vector(packetBytes)"
vector 274 TARPNetwork.node[28].wlan[0].mac.queue packetPushed:vector(packetBytes) ETV
attr interpolationmode none
attr title "packet pushed, vector(packetBytes)"
vector 275 TARPNetwork.node[28].wlan[0].mac.queue queueLength:vector ETV
attr interpolationmode sample-hold
attr source "count(packetPushed) - count(packetPopped) - count(packetRemoved) - count(packetDropped)"
attr title "queue length, vector"
vector 276 TARPNetwork.node[28].wlan[0].mac.queue packetPopped:vector(packetBytes) ETV
attr interpolationmode none
attr title "packet popped, vector(packetBytes)"
vector 277 TARPNetwork.node[28].wlan[0].mac.queue queueingTime:vector ETV
attr interpolationmode none
attr source queueingTime(packetPopped)
attr title "queueing times, vector"
attr unit s
vector 278 TARPNetwork.node[28].wlan[0].mac sentDownPk:vector(packetBytes) ETV
attr interpolationmode none
attr source packetSentToLower
attr title "packets sent to lower layer, vector(packetBytes)"
vector 279 TARPNetwork.node[31].wlan[0].mac rcvdPkFromLl:vector(packetBytes) ETV
attr interpolationmode none
attr source packetReceivedFromLower
attr title "packets received from lower layer, vector(packetBytes)"
vector 280 TARPNetwork.node[31].wlan[0].mac passedUpPk:vector(packetBytes) ETV
attr interpolationmode none
attr source packetSentToUpper
attr title "packets passed to higher layer, vector(packetBytes)"
vector 281 TARPNetwork.node[31].wlan[0].mac rcvdPkFromHl:vector(packetBytes) ETV
attr interpolationmode none
attr source packetReceivedFromUpper
attr title "packets received from higher layer, vector(packetBytes)"
vector 282 TARPNetwork.node[31].wlan[0].mac.queue packetPushed:vector(packetBytes) ETV
attr interpolationmode none
attr title "packet pushed, vector(packetBytes)"
vector 283 TARPNetwork.node[31].wlan[0].mac.queue queueLength:vector ETV
attr interpolationmode sample-hold
attr source "count(packetPushed) - count(packetPopped) - count(packetRemoved) - count(packetDropped)"
attr title "queue length, vector"
vector 284 TARPNetwork.node[31].wlan[0].mac.queue packetPopped:vector(packetBytes) ETV
attr interpolationmode none
attr title "packet popped, vector(packetBytes)"
vector 285 TARPNetwork.node[31].wlan[0].mac.queue queueingTime:vector ETV
attr interpolationmode none
attr source queueingTime(packetPopped)
attr title "queueing times, vector"
attr unit s
vector 286 TARPNetwork.node[31].wlan[0].mac sentDownPk:vector(packetBytes) ETV
attr interpolationmode none
attr source packetSentToLower
attr title "packets sent to lower layer, vector(packetBytes)"
vector 287 TARPNetwork.node[38].wlan[0].mac rcvdPkFromLl:vector(packetBytes) ETV
attr interpolationmode none
attr source packetReceivedFromLower
attr title "packets received from lower layer, vector(packetBytes)"
vector 288 TARPNetwork.node[38].wlan[0].mac passedUpPk:vector(packetBytes) ETV
attr interpolationmode none
attr source packetSentToUpper
attr title "packets passed to higher layer, vector(packetBytes)"
vector 289 TARPNetwork.node[38].wlan[0].mac rcvdPkFromHl:vector(packetBytes) ETV
attr interpolationmode none
attr source packetReceivedFromUpper
attr title "packets received from higher layer, vector(packetBytes)"
vector 290 TARPNetwork.node[38].wlan[0].mac.queue packetPushed:vector(packetBytes) ETV
attr interpolationmode none
attr title "packet pushed, vector(packetBytes)"
vector 291 TARPNetwork.node[38].wlan[0].mac.queue queueLength:vector ETV
attr interpolationmode sample-hold
attr source "count(packetPushed) - count(packetPopped) - count(packetRemoved) - count(packetDropped)"
attr title "queue length, vector"
vector 292 TARPNetwork.node[38].wlan[0].mac.queue packetPopped:vector(packetBytes) ETV
attr interpolationmode none
attr title "packet popped, vector(packetBytes)"
vector 293 TARPNetwork.node[38].wlan[0].mac.queue queueingTime:vector ETV
attr interpolationmode none
attr source queueingTime(packetPopped)
attr title "queueing times, vector"
attr unit s
vector 294 TARPNetwork.node[38].wlan[0].mac sentDownPk:vector(packetBytes) ETV
attr interpolationmode none
attr source packetSentToLower
attr title "packets sent to lower layer, vector(packetBytes)"
vector 295 TARPNetwork.node[36].wlan[0].mac rcvdPkFromLl:vector(packetBytes) ETV
attr interpolationmode none
attr source packetReceivedFromLower
attr title "packets received from lower layer, vector(packetBytes)"
vector 296 TARPNetwork.node[36].wlan[0].mac passedUpPk:vector(packetBytes) ETV
attr interpolationmode none
attr source packetSentToUpper
attr title "packets passed to higher layer, vector(packetBytes)"
vector 297 TARPNetwork.node[36].wlan[0].mac rcvdPkFromHl:vector(packetBytes) ETV
attr interpolationmode none
attr source packetReceivedFromUpper
attr title "packets received from higher layer, vector(packetBytes)"
vector 298 TARPNetwork.node[36].wlan[0].mac.queue packetPushed:vector(packetBytes) ETV
attr interpolationmode none
attr title "packet pushed, vector(packetBytes)"
vector 299 TARPNetwork.node[36].wlan[0].mac.queue queueLength:vector ETV
attr interpolationmode sample-hold
attr source "count(packetPushed) - count(packetPopped) - count(packetRemoved) - count(packetDropped)"
attr title "queue length, vector"
vector 300 TARPNetwork.node[36].wlan[0].mac.queue packetPopped:vector(packetBytes) ETV
attr interpolationmode none
attr title "packet popped, vector(packetBytes)"
vector 301 TARPNetwork.node[36].wlan[0].mac.queue queueingTime:vector ETV
attr interpolationmode none
attr source queueingTime(packetPopped)
attr title "queueing times, vector"
attr unit s
vector 302 TARPNetwork.node[36].wlan[0].mac sentDownPk:vector(packetBytes) ETV
attr interpolationmode none
attr source packetSentToLower
attr title "packets sent to lower layer, vector(packetBytes)"
vector 303 TARPNetwork.node[32].wlan[0].mac rcvdPkFromLl:vector(packetBytes) ETV
attr interpolationmode none
attr source packetReceivedFromLower
attr title "packets received from lower layer, vector(packetBytes)"
vector 304 TARPNetwork.node[32].wlan[0].mac passedUpPk:vector(packetBytes) ETV
attr interpolationmode none
attr source packetSentToUpper
attr title "packets passed to higher layer, vector(packetBytes)"
vector 305 TARPNetwork.node[32].wlan[0].mac rcvdPkFromHl:vector(packetBytes) ETV
attr interpolationmode none
attr source packetReceivedFromUpper
attr title "packets received from higher layer, vector(packetBytes)"
vector 306 TARPNetwork.node[32].wlan[0].mac.queue packetPushed:vector(packetBytes) ETV
attr interpolationmode none
attr title "packet pushed, vector(packetBytes)"
vector 307 TARPNetwork.node[32].wlan[0].mac.queue queueLength:vector ETV
attr interpolationmode sample-hold
attr source "count(packetPushed) - count(packetPopped) - count(packetRemoved) - count(packetDropped)"
attr title "queue length, vector"
vector 308 TARPNetwork.node[32].wlan[0].mac.queue packetPopped:vector(packetBytes) ETV
attr interpolationmode none
attr title "packet popped, vector(packetBytes)"
vector 309 TARPNetwork.node[32].wlan[0].mac.queue queueingTime:vector ETV
attr interpolationmode none
attr source queueingTime(packetPopped)
attr title "queueing times, vector"
attr unit s
vector 310 TARPNetwork.node[32].wlan[0].mac sentDownPk:vector(packetBytes) ETV
attr interpolationmode none
attr source packetSentToLower
attr title "packets sent to lower layer, vector(packetBytes)"
vector 311 TARPNetwork.node[25].wlan[0].mac rcvdPkFromLl:vector(packetBytes) ETV
attr interpolationmode none
attr source packetReceivedFromLower
attr title "packets received from lower layer, vector(packetBytes)"
vector 312 TARPNetwork.node[25].wlan[0].mac passedUpPk:vector(packetBytes) ETV
attr interpolationmode none
attr source packetSentToUpper
attr title "packets passed to higher layer, vector(packetBytes)"
vector 313 TARPNetwork.node[25].wlan[0].mac rcvdPkFromHl:vector(packetBytes) ETV
attr interpolationmode none
attr source packetReceivedFromUpper
attr title "packets received from higher layer, vector(packetBytes)"
vector 314 TARPNetwork.node[25].wlan[0].mac.queue packetPushed:vector(packetBytes) ETV
attr interpolationmode none
attr title "packet pushed, vector(packetBytes)"
vector 315 TARPNetwork.node[25].wlan[0].mac.queue queueLength:vector ETV
attr interpolationmode sample-hold
attr source "count(packetPushed) - count(packetPopped) - count(packetRemoved) - count(packetDropped)"
attr title "queue length, vector"
vector 316 TARPNetwork.node[25].wlan[0].mac.queue packetPopped:vector(packetBytes) ETV
attr interpolationmode none
attr title "packet popped, vector(packetBytes)"
vector 317 TARPNetwork.node[25].wlan[0].mac.queue queueingTime:vector ETV
attr interpolationmode none
attr source queueingTime(packetPopped)
attr title "queueing times, vector"
attr unit s
vector 318 TARPNetwork.node[25].wlan[0].mac sentDownPk:vector(packetBytes) ETV
attr interpolationmode none
attr source packetSentToLower
attr title "packets sent to lower layer, vector(packetBytes)"
vector 319 TARPNetwork.node[11].wlan[0].mac rcvdPkFromLl:vector(packetBytes) ETV
attr interpolationmode none
attr source packetReceivedFromLower
attr title "packets received from lower layer, vector(packetBytes)"
vector 320 TARPNetwork.node[11].wlan[0].mac passedUpPk:vector(packetBytes) ETV
attr interpolationmode none
attr source packetSentToUpper
attr title "packets passed to higher layer, vector(packetBytes)"
vector 321 TARPNetwork.node[11].wlan[0].mac rcvdPkFromHl:vector(packetBytes) ETV
attr interpolationmode none
attr source packetReceivedFromUpper
attr title "packets received from higher layer, vector(packetBytes)"
vector 322 TARPNetwork.node[11].wlan[0].mac.queue packetPushed:vector(packetBytes) ETV
attr interpolationmode none
attr title "packet pushed, vector(packetBytes)"
vector 323 TARPNetwork.node[11].wlan[0].mac.queue queueLength:vector ETV
attr interpolationmode sample-hold
attr source "count(packetPushed) - count(packetPopped) - count(packetRemoved) - count(packetDropped)"
attr title "queue length, vector"
vector 324 TARPNetwork.node[11].wlan[0].mac.queue packetPopped:vector(packetBytes) ETV
attr interpolationmode none
attr title "packet popped, vector(packetBytes)"
vector 325 TARPNetwork.node[11].wlan[0].mac.queue queueingTime:vector ETV
attr interpolationmode none
attr source queueingTime(packetPopped)
attr title "queueing times, vector"
attr unit s
vector 326 TARPNetwork.node[11].wlan[0].mac sentDownPk:vector(packetBytes) ETV
attr interpolationmode none
attr source packetSentToLower
attr title "packets sent to lower layer, vector(packetBytes)"
vector 327 TARPNetwork.node[34].wlan[0].mac rcvdPkFromLl:vector(packetBytes) ETV
attr interpolationmode none
attr source packetReceivedFromLower
attr title "packets received from lower layer, vector(packetBytes)"
vector 328 TARPNetwork.node[34].wlan[0].mac passedUpPk:vector(packetBytes) ETV
attr interpolationmode none
attr source packetSentToUpper
attr title "packets passed to higher layer, vector(packetBytes)"
vector 329 TARPNetwork.node[34].wlan[0].mac rcvdPkFromHl:vector(packetBytes) ETV
attr interpolationmode none
attr source packetReceivedFromUpper
attr title "packets received from higher layer, vector(packetBytes)"
vector 330 TARPNetwork.node[34].wlan[0].mac.queue packetPushed:vector(packetBytes) ETV
attr interpolationmode none
attr title "packet pushed, vector(packetBytes)"
vector 331 TARPNetwork.node[34].wlan[0].mac.queue queueLength:vector ETV
attr interpolationmode sample-hold
attr source "count(packetPushed) - count(packetPopped) - count(packetRemoved) - count(packetDropped)"
attr title "queue length, vector"
vector 332 TARPNetwork.node[34].wlan[0].mac.queue packetPopped:vector(packetBytes) ETV
attr interpolationmode none
attr title "packet popped, vector(packetBytes)"
vector 333 TARPNetwork.node[34].wlan[0].mac.queue queueingTime:vector ETV
attr interpolationmode none
attr source queueingTime(packetPopped)
attr title "queueing times, vector"
attr unit s
vector 334 TARPNetwork.node[34].wlan[0].mac sentDownPk:vector(packetBytes) ETV
attr interpolationmode none
attr source packetSentToLower
attr title "packets sent to lower layer, vector(packetBytes)"
vector 335 TARPNetwork.node[26].wlan[0].mac rcvdPkFromLl:vector(packetBytes) ETV
attr interpolationmode none
attr source packetReceivedFromLower
attr title "packets received from lower layer, vector(packetBytes)"
vector 336 TARPNetwork.node[26].wlan[0].mac passedUpPk:vector(packetBytes) ETV
attr interpolationmode none
attr source packetSentToUpper
attr title "packets passed to higher layer, vector(packetBytes)"
vector 337 TARPNetwork.node[26].wlan[0].mac rcvdPkFromHl:vector(packetBytes) ETV
attr interpolationmode none
attr source packetReceivedFromUpper
attr title "packets received from higher layer, vector(packetBytes)"
vector 338 TARPNetwork.node[26].wlan[0].mac.queue packetPushed:vector(packetBytes) ETV
attr interpolationmode none
attr title "packet pushed, vector(packetBytes)"
vector 339 TARPNetwork.node[26].wlan[0].mac.queue queueLength:vector ETV
attr interpolationmode sample-hold
attr source "count(packetPushed) - count(packetPopped) - count(packetRemoved) - count(packetDropped)"
attr title "queue length, vector"
vector 340 TARPNetwork.node[26].wlan[0].mac.queue packetPopped:vector(packetBytes) ETV
attr interpolationmode none
attr title "packet popped, vector(packetBytes)"
vector 341 TARPNetwork.node[26].wlan[0].mac.queue queueingTime:vector ETV
attr interpolationmode none
attr source queueingTime(packetPopped)
attr title "queueing times, vector"
attr unit s
vector 342 TARPNetwork.node[26].wlan[0].mac sentDownPk:vector(packetBytes) ETV
attr interpolationmode none
attr source packetSentToLower
attr title "packets sent to lower layer, vector(packetBytes)"
vector 343 TARPNetwork.node[27].wlan[0].mac rcvdPkFromLl:vector(packetBytes) ETV
attr interpolationmode none
attr source packetReceivedFromLower
attr title "packets received from lower layer, vector(packetBytes)"
vector 344 TARPNetwork.node[27].wlan[0].mac passedUpPk:vector(packetBytes) ETV
attr interpolationmode none
attr source packetSentToUpper
attr title "packets passed to higher layer, vector(packetBytes)"
vector 345 TARPNetwork.node[27].wlan[0].mac rcvdPkFromHl:vector(packetBytes) ETV
attr interpolationmode none
attr source packetReceivedFromUpper
attr title "packets received from higher layer, vector(packetBytes)"
vector 346 TARPNetwork.node[27].wlan[0].mac.queue packetPushed:vector(packetBytes) ETV
attr interpolationmode none
attr title "packet pushed, vector(packetBytes)"
vector 347 TARPNetwork.node[27].wlan[0].mac.queue queueLength:vector ETV
attr interpolationmode sample-hold
attr source "count(packetPushed) - count(packetPopped) - count(packetRemoved) - count(packetDropped)"
attr title "queue length, vector"
vector 348 TARPNetwork.node[27].wlan[0].mac.queue packetPopped:vector(packetBytes) ETV
attr interpolationmode none
attr title "packet popped, vector(packetBytes)"
vector 349 TARPNetwork.node[27].wlan[0].mac.queue queueingTime:vector ETV
attr interpolationmode none
attr source queueingTime(packetPopped)
attr title "queueing times, vector"
attr unit s
vector 350 TARPNetwork.node[27].wlan[0].mac sentDownPk:vector(packetBytes) ETV
attr interpolationmode none
attr source packetSentToLower
attr title "packets sent to lower layer, vector(packetBytes)"
vector 351 TARPNetwork.node[5].wlan[0].mac rcvdPkFromLl:vector(packetBytes) ETV
attr interpolationmode none
attr source packetReceivedFromLower
attr title "packets received from lower layer, vector(packetBytes)"
vector 352 TARPNetwork.node[5].wlan[0].mac passedUpPk:vector(packetBytes) ETV
attr interpolationmode none
attr source packetSentToUpper
attr title "packets passed to higher layer, vector(packetBytes)"
vector 353 TARPNetwork.node[5].wlan[0].mac rcvdPkFromHl:vector(packetBytes) ETV
attr interpolationmode none
attr source packetReceivedFromUpper
attr title "packets received from higher layer, vector(packetBytes)"
vector 354 TARPNetwork.node[5].wlan[0].mac.queue packetPushed:vector(packetBytes) ETV
attr interpolationmode none
attr title "packet pushed, vector(packetBytes)"
vector 355 TARPNetwork.node[5].wlan[0].mac.queue queueLength:vector ETV
attr interpolationmode sample-hold
attr source "count(packetPushed) - count(packetPopped) - count(packetRemoved) - count(packetDropped)"
attr title "queue length, vector"
vector 356 TARPNetwork.node[5].wlan[0].mac.queue packetPopped:vector(packetBytes) ETV
attr interpolationmode none
attr title "packet popped, vector(packetBytes)"
vector 357 TARPNetwork.node[5].wlan[0].mac.queue queueingTime:vector ETV
attr interpolationmode none
attr source queueingTime(packetPopped)
attr title "queueing times, vector"
attr unit s
vector 358 TARPNetwork.node[5].wlan[0].mac sentDownPk:vector(packetBytes) ETV
attr interpolationmode none
attr source packetSentToLower
attr title "packets sent to lower layer, vector(packetBytes)"
vector 359 TARPNetwork.node[29].wlan[0].mac rcvdPkFromLl:vector(packetBytes) ETV
attr interpolationmode none
attr source packetReceivedFromLower
attr title "packets received from lower layer, vector(packetBytes)"
vector 360 TARPNetwork.node[29].wlan[0].mac passedUpPk:vector(packetBytes) ETV
attr interpolationmode none
attr source packetSentToUpper
attr title "packets passed to higher layer, vector(packetBytes)"
vector 361 TARPNetwork.node[29].wlan[0].mac rcvdPkFromHl:vector(packetBytes) ETV
attr interpolationmode none
attr source packetReceivedFromUpper
attr title "packets received from higher layer, vector(packetBytes)"
vector 362 TARPNetwork.node[29].wlan[0].mac.queue packetPushed:vector(packetBytes) ETV
attr interpolationmode none
attr title "packet pushed, vector(packetBytes)"
vector 363 TARPNetwork.node[29].wlan[0].mac.queue queueLength:vector ETV
attr interpolationmode sample-hold
attr source "count(packetPushed) - count(packetPopped) - count(packetRemoved) - count(packetDropped)"
attr title "queue length, vector"
vector 364 TARPNetwork.node[29].wlan[0].mac.queue packetPopped:vector(packetBytes) ETV
attr interpolationmode none
attr title "packet popped, vector(packetBytes)"
vector 365 TARPNetwork.node[29].wlan[0].mac.queue queueingTime:vector ETV
attr interpolationmode none
attr source queueingTime(packetPopped)
attr title "queueing times, vector"
attr unit s
vector 366 TARPNetwork.node[29].wlan[0].mac sentDownPk:vector(packetBytes) ETV
attr interpolationmode none
attr source packetSentToLower
attr title "packets sent to lower layer, vector(packetBytes)"
vector 367 TARPNetwork.node[37].wlan[0].mac rcvdPkFromLl:vector(packetBytes) ETV
attr interpolationmode none
attr source packetReceivedFromLower
attr title "packets received from lower layer, vector(packetBytes)"
vector 368 TARPNetwork.node[37].wlan[0].mac passedUpPk:vector(packetBytes) ETV
attr interpolationmode none
attr source packetSentToUpper
attr title "packets passed to higher layer, vector(packetBytes)"
vector 369 TARPNetwork.node[37].wlan[0].mac rcvdPkFromHl:vector(packetBytes) ETV
attr interpolationmode none
attr source packetReceivedFromUpper
attr title "packets received from higher layer, vector(packetBytes)"
vector 370 TARPNetwork.node[37].wlan[0].mac.queue packetPushed:vector(packetBytes) ETV
attr interpolationmode none
attr title "packet pushed, vector(packetBytes)"
vector 371 TARPNetwork.node[37].wlan[0].mac.queue queueLength:vector ETV
attr interpolationmode sample-hold
attr source "count(packetPushed) - count(packetPopped) - count(packetRemoved) - count(packetDropped)"
attr title "queue length, vector"
vector 372 TARPNetwork.node[37].wlan[0].mac.queue packetPopped:vector(packetBytes) ETV
attr interpolationmode none
attr title "packet popped, vector(packetBytes)"
vector 373 TARPNetwork.node[37].wlan[0].mac.queue queueingTime:vector ETV
attr interpolationmode none
attr source queueingTime(packetPopped)
attr title "queueing times, vector"
attr unit s
vector 374 TARPNetwork.node[37].wlan[0].mac sentDownPk:vector(packetBytes) ETV
attr interpolationmode none
attr source packetSentToLower
attr title "packets sent to lower layer, vector(packetBytes)"
vector 375 TARPNetwork.node[1].wlan[0].mac rcvdPkFromLl:vector(packetBytes) ETV
attr interpolationmode none
attr source packetReceivedFromLower
attr title "packets received from lower layer, vector(packetBytes)"
vector 376 TARPNetwork.node[1].wlan[0].mac passedUpPk:vector(packetBytes) ETV
attr interpolationmode none
attr source packetSentToUpper
attr title "packets passed to higher layer, vector(packetBytes)"
vector 377 TARPNetwork.node[1].wlan[0].mac rcvdPkFromHl:vector(packetBytes) ETV
attr interpolationmode none
attr source packetReceivedFromUpper
attr title "packets received from higher layer, vector(packetBytes)"
vector 378 TARPNetwork.node[1].wlan[0].mac.queue packetPushed:vector(packetBytes) ETV
attr interpolationmode none
attr title "packet pushed, vector(packetBytes)"
vector 379 TARPNetwork.node[1].wlan[0].mac.queue queueLength:vector ETV
attr interpolationmode sample-hold
attr source "count(packetPushed) - count(packetPopped) - count(packetRemoved) - count(packetDropped)"
attr title "queue length, vector"
vector 380 TARPNetwork.node[1].wlan[0].mac.queue packetPopped:vector(packetBytes) ETV
attr interpolationmode none
attr title "packet popped, vector(packetBytes)"
vector 381 TARPNetwork.node[1].wlan[0].mac.queue queueingTime:vector ETV
attr interpolationmode none
attr source queueingTime(packetPopped)
attr title "queueing times, vector"
attr unit s
vector 382 TARPNetwork.node[1].wlan[0].mac sentDownPk:vector(packetBytes) ETV
attr interpolationmode none
attr source packetSentToLower
attr title "packets sent to lower layer, vector(packetBytes)"
vector 383 TARPNetwork.node[19].wlan[0].mac rcvdPkFromLl:vector(packetBytes) ETV
attr interpolationmode none
attr source packetReceivedFromLower
attr title "packets received from lower layer, vector(packetBytes)"
vector 384 TARPNetwork.node[19].wlan[0].mac passedUpPk:vector(packetBytes) ETV
attr interpolationmode none
attr source packetSentToUpper
attr title "packets passed to higher layer, vector(packetBytes)"
vector 385 TARPNetwork.node[19].wlan[0].mac rcvdPkFromHl:vector(packetBytes) ETV
attr interpolationmode none
attr source packetReceivedFromUpper
attr title "packets received from higher layer, vector(packetBytes)"
vector 386 TARPNetwork.node[19].wlan[0].mac.queue packetPushed:vector(packetBytes) ETV
attr interpolationmode none
attr title "packet pushed, vector(packetBytes)"
vector 387 TARPNetwork.node[19].wlan[0].mac.queue queueLength:vector ETV
attr interpolationmode sample-hold
attr source "count(packetPushed) - count(packetPopped) - count(packetRemoved) - count(packetDropped)"
attr title "queue length, vector"
vector 388 TARPNetwork.node[19].wlan[0].mac.queue packetPopped:vector(packetBytes) ETV
attr interpolationmode none
attr title "packet popped, vector(packetBytes)"
vector 389 TARPNetwork.node[19].wlan[0].mac.queue queueingTime:vector ETV
attr interpolationmode none
attr source queueingTime(packetPopped)
attr title "queueing times, vector"
attr unit s
vector 390 TARPNetwork.node[19].wlan[0].mac sentDownPk:vector(packetBytes) ETV
attr interpolationmode none
attr source packetSentToLower
attr title "packets sent to lower layer, vector(packetBytes)"
vector 391 TARPNetwork.node[21].wlan[0].mac rcvdPkFromLl:vector(packetBytes) ETV
attr interpolationmode none
attr source packetReceivedFromLower
attr title "packets received from lower layer, vector(packetBytes)"
vector 392 TARPNetwork.node[21].wlan[0].mac passedUpPk:vector(packetBytes) ETV
attr interpolationmode none
attr source packetSentToUpper
attr title "packets passed to higher layer, vector(packetBytes)"
vector 393 TARPNetwork.node[21].wlan[0].mac rcvdPkFromHl:vector(packetBytes) ETV
attr interpolationmode none
attr source packetReceivedFromUpper
attr title "packets received from higher layer, vector(packetBytes)"
vector 394 TARPNetwork.node[21].wlan[0].mac.queue packetPushed:vector(packetBytes) ETV
attr interpolationmode none
attr title "packet pushed, vector(packetBytes)"
vector 395 TARPNetwork.node[21].wlan[0].mac.queue queueLength:vector ETV
attr interpolationmode sample-hold
attr source "count(packetPushed) - count(packetPopped) - count(packetRemoved) - count(packetDropped)"
attr title "queue length, vector"
vector 396 TARPNetwork.node[21].wlan[0].mac.queue packetPopped:vector(packetBytes) ETV
attr interpolationmode none
attr title "packet popped, vector(packetBytes)"
vector 397 TARPNetwork.node[21].wlan[0].mac.queue queueingTime:vector ETV
attr interpolationmode none
attr source queueingTime(packetPopped)
attr title "queueing times, vector"
attr unit s
vector 398 TARPNetwork.node[21].wlan[0].mac sentDownPk:vector(packetBytes) ETV
attr interpolationmode none
attr source packetSentToLower
attr title "packets sent to lower layer, vector(packetBytes)"
vector 399 TARPNetwork.node[2].wlan[0].mac rcvdPkFromLl:vector(packetBytes) ETV
attr interpolationmode none
attr source packetReceivedFromLower
attr title "packets received from lower layer, vector(packetBytes)"
vector 400 TARPNetwork.node[2].wlan[0].mac passedUpPk:vector(packetBytes) ETV
attr interpolationmode none
attr source packetSentToUpper
attr title "packets passed to higher layer, vector(packetBytes)"
vector 401 TARPNetwork.node[2].wlan[0].mac rcvdPkFromHl:vector(packetBytes) ETV
attr interpolationmode none
attr source packetReceivedFromUpper
attr title "packets received from higher layer, vector(packetBytes)"
vector 402 TARPNetwork.node[2].wlan[0].mac.queue packetPushed:vector(packetBytes) ETV
attr interpolationmode none
attr title "packet pushed, vector(packetBytes)"
vector 403 TARPNetwork.node[2].wlan[0].mac.queue queueLength:vector ETV
attr interpolationmode sample-hold
attr source "count(packetPushed) - count(packetPopped) - count(packetRemoved) - count(packetDropped)"
attr title "queue length, vector"
vector 404 TARPNetwork.node[2].wlan[0].mac.queue packetPopped:vector(packetBytes) ETV
attr interpolationmode none
attr title "packet popped, vector(packetBytes)"
vector 405 TARPNetwork.node[2].wlan[0].mac.queue queueingTime:vector ETV
attr interpolationmode none
attr source queueingTime(packetPopped)
attr title "queueing times, vector"
attr unit s
vector 406 TARPNetwork.node[2].wlan[0].mac sentDownPk:vector(packetBytes) ETV
attr interpolationmode none
attr source packetSentToLower
attr title "packets sent to lower layer, vector(packetBytes)"
vector 407 TARPNetwork.node[9].wlan[0].mac rcvdPkFromLl:vector(packetBytes) ETV
[...]
439	17823	3.002913847378	92
439	18608	3.003746283794	92
439	20633	3.005827209496	92
439	21739	3.006659645912	92
439	25245	4.002913847378	92
439	26030	4.003746283794	92
439	28055	4.005827209496	92
439	29161	4.006659645912	92
439	32667	5.002913847378	92
439	33452	5.003746283794	92
439	35477	5.005827209496	92
439	36583	5.006659645912	92
439	40089	6.002913847378	92
439	40874	6.003746283794	92
439	42899	6.005827209496	92
439	44005	6.006659645912	92
439	47511	7.002913847378	92
439	48296	7.003746283794	92
439	50321	7.005827209496	92
439	51427	7.006659645912	92
439	54933	8.002913847378	92
439	55718	8.003746283794	92
439	57743	8.005827209496	92
439	58849	8.006659645912	92
439	62355	9.002913847378	92
439	63140	9.003746283794	92
439	65165	9.005827209496	92
439	66271	9.006659645912	92
439	69777	10.002913847378	92
439	70562	10.003746283794	92
439	72587	10.005827209496	92
439	73693	10.006659645912	92
439	77199	11.002913847378	92
439	77984	11.003746283794	92
439	80009	11.005827209496	92
439	81115	11.006659645912	92
439	84621	12.002913847378	92
439	85406	12.003746283794	92
439	87431	12.005827209496	92
439	88537	12.006659645912	92
440	2979	1.002913847378	76
440	3764	1.003746283794	76
440	5789	1.005827209496	76
440	6895	1.006659645912	76
440	10401	2.002913847378	76
440	11186	2.003746283794	76
440	13211	2.005827209496	76
440	14317	2.006659645912	76
440	17823	3.002913847378	76
440	18608	3.003746283794	76
440	20633	3.005827209496	76
440	21739	3.006659645912	76
440	25245	4.002913847378	76
440	26030	4.003746283794	76
440	28055	4.005827209496	76
440	29161	4.006659645912	76
440	32667	5.002913847378	76
440	33452	5.003746283794	76
440	35477	5.005827209496	76
440	36583	5.006659645912	76
440	40089	6.002913847378	76
440	40874	6.003746283794	76
440	42899	6.005827209496	76
440	44005	6.006659645912	76
440	47511	7.002913847378	76
440	48296	7.003746283794	76
440	50321	7.005827209496	76
440	51427	7.006659645912	76
440	54933	8.002913847378	76
440	55718	8.003746283794	76
440	57743	8.005827209496	76
440	58849	8.006659645912	76
440	62355	9.002913847378	76
440	63140	9.003746283794	76
440	65165	9.005827209496	76
440	66271	9.006659645912	76
440	69777	10.002913847378	76
440	70562	10.003746283794	76
440	72587	10.005827209496	76
440	73693	10.006659645912	76
440	77199	11.002913847378	76
440	77984	11.003746283794	76
440	80009	11.005827209496	76
440	81115	11.006659645912	76
440	84621	12.002913847378	76
440	85406	12.003746283794	76
440	87431	12.005827209496	76
440	88537	12.006659645912	76
441	2981	1.002913847378	76
441	5791	1.005827209496	76
441	10403	2.002913847378	76
441	13213	2.005827209496	76
441	17825	3.002913847378	76
441	20635	3.005827209496	76
441	25247	4.002913847378	76
441	28057	4.005827209496	76
441	32669	5.002913847378	76
441	35479	5.005827209496	76
441	40091	6.002913847378	76
441	42901	6.005827209496	76
441	47513	7.002913847378	76
441	50323	7.005827209496	76
441	54935	8.002913847378	76
441	57745	8.005827209496	76
441	62357	9.002913847378	76
441	65167	9.005827209496	76
441	69779	10.002913847378	76
441	72589	10.005827209496	76
441	77201	11.002913847378	76
441	80011	11.005827209496	76
441	84623	12.002913847378	76
441	87433	12.005827209496	76
442	2981	1.002913847378	76
442	5791	1.005827209496	76
442	10403	2.002913847378	76
442	13213	2.005827209496	76
442	17825	3.002913847378	76
442	20635	3.005827209496	76
442	25247	4.002913847378	76
442	28057	4.005827209496	76
442	32669	5.002913847378	76
442	35479	5.005827209496	76
442	40091	6.002913847378	76
442	42901	6.005827209496	76
442	47513	7.002913847378	76
442	50323	7.005827209496	76
442	54935	8.002913847378	76
442	57745	8.005827209496	76
442	62357	9.002913847378	76
442	65167	9.005827209496	76
442	69779	10.002913847378	76
442	72589	10.005827209496	76
442	77201	11.002913847378	76
442	80011	11.005827209496	76
442	84623	12.002913847378	76
442	87433	12.005827209496	76
443	2981	1.002913847378	1
443	2981	1.002913847378	0
443	5791	1.005827209496	1
443	5791	1.005827209496	0
443	10403	2.002913847378	1
443	10403	2.002913847378	0
443	13213	2.005827209496	1
443	13213	2.005827209496	0
443	17825	3.002913847378	1
443	17825	3.002913847378	0
443	20635	3.005827209496	1
443	20635	3.005827209496	0
443	25247	4.002913847378	1
443	25247	4.002913847378	0
443	28057	4.005827209496	1
443	28057	4.005827209496	0
443	32669	5.002913847378	1
443	32669	5.002913847378	0
443	35479	5.005827209496	1
443	35479	5.005827209496	0
443	40091	6.002913847378	1
443	40091	6.002913847378	0
443	42901	6.005827209496	1
443	42901	6.005827209496	0
443	47513	7.002913847378	1
443	47513	7.002913847378	0
443	50323	7.005827209496	1
443	50323	7.005827209496	0
443	54935	8.002913847378	1
443	54935	8.002913847378	0
443	57745	8.005827209496	1
443	57745	8.005827209496	0
443	62357	9.002913847378	1
443	62357	9.002913847378	0
443	65167	9.005827209496	1
443	65167	9.005827209496	0
443	69779	10.002913847378	1
443	69779	10.002913847378	0
443	72589	10.005827209496	1
443	72589	10.005827209496	0
443	77201	11.002913847378	1
443	77201	11.002913847378	0
443	80011	11.005827209496	1
443	80011	11.005827209496	0
443	84623	12.002913847378	1
443	84623	12.002913847378	0
443	87433	12.005827209496	1
443	87433	12.005827209496	0
444	2981	1.002913847378	76
444	5791	1.005827209496	76
444	10403	2.002913847378	76
444	13213	2.005827209496	76
444	17825	3.002913847378	76
444	20635	3.005827209496	76
444	25247	4.002913847378	76
444	28057	4.005827209496	76
444	32669	5.002913847378	76
444	35479	5.005827209496	76
444	40091	6.002913847378	76
444	42901	6.005827209496	76
444	47513	7.002913847378	76
444	50323	7.005827209496	76
444	54935	8.002913847378	76
444	57745	8.005827209496	76
444	62357	9.002913847378	76
444	65167	9.005827209496	76
444	69779	10.002913847378	76
444	72589	10.005827209496	76
444	77201	11.002913847378	76
444	80011	11.005827209496	76
444	84623	12.002913847378	76
444	87433	12.005827209496	76
445	2981	1.002913847378	0
445	5791	1.005827209496	0
445	10403	2.002913847378	0
445	13213	2.005827209496	0
445	17825	3.002913847378	0
445	20635	3.005827209496	0
445	25247	4.002913847378	0
445	28057	4.005827209496	0
445	32669	5.002913847378	0
445	35479	5.005827209496	0
445	40091	6.002913847378	0
445	42901	6.005827209496	0
445	47513	7.002913847378	0
445	50323	7.005827209496	0
445	54935	8.002913847378	0
445	57745	8.005827209496	0
445	62357	9.002913847378	0
445	65167	9.005827209496	0
445	69779	10.002913847378	0
445	72589	10.005827209496	0
445	77201	11.002913847378	0
445	80011	11.005827209496	0
445	84623	12.002913847378	0
445	87433	12.005827209496	0
446	2981	1.002913847378	92
446	5791	1.005827209496	92
446	10403	2.002913847378	92
446	13213	2.005827209496	92
446	17825	3.002913847378	92
446	20635	3.005827209496	92
446	25247	4.002913847378	92
446	28057	4.005827209496	92
446	32669	5.002913847378	92
446	35479	5.005827209496	92
446	40091	6.002913847378	92
446	42901	6.005827209496	92
446	47513	7.002913847378	92
446	50323	7.005827209496	92
446	54935	8.002913847378	92
446	57745	8.005827209496	92
446	62357	9.002913847378	92
446	65167	9.005827209496	92
446	69779	10.002913847378	92
446	72589	10.005827209496	92
446	77201	11.002913847378	92
446	80011	11.005827209496	92
446	84623	12.002913847378	92
446	87433	12.005827209496	92
447	3371	1.003330065586	92
447	6371	1.006243427704	92
447	10793	2.003330065586	92
447	13793	2.006243427704	92
447	18215	3.003330065586	92
447	21215	3.006243427704	92
447	25637	4.003330065586	92
447	28637	4.006243427704	92
447	33059	5.003330065586	92
447	36059	5.006243427704	92
447	40481	6.003330065586	92
447	43481	6.006243427704	92
447	47903	7.003330065586	92
447	50903	7.006243427704	92
447	55325	8.003330065586	92
447	58325	8.006243427704	92
447	62747	9.003330065586	92
447	65747	9.006243427704	92
447	70169	10.003330065586	92
447	73169	10.006243427704	92
447	77591	11.003330065586	92
447	80591	11.006243427704	92
447	85013	12.003330065586	92
447	88013	12.006243427704	92
448	3371	1.003330065586	76
448	6371	1.006243427704	76
448	10793	2.003330065586	76
448	13793	2.006243427704	76
448	18215	3.003330065586	76
448	21215	3.006243427704	76
448	25637	4.003330065586	76
448	28637	4.006243427704	76
448	33059	5.003330065586	76
448	36059	5.006243427704	76
448	40481	6.003330065586	76
448	43481	6.006243427704	76
448	47903	7.003330065586	76
448	50903	7.006243427704	76
448	55325	8.003330065586	76
448	58325	8.006243427704	76
448	62747	9.003330065586	76
448	65747	9.006243427704	76
448	70169	10.003330065586	76
448	73169	10.006243427704	76
448	77591	11.003330065586	76
448	80591	11.006243427704	76
448	85013	12.003330065586	76
448	88013	12.006243427704	76
449	3373	1.003330065586	76
449	6373	1.006243427704	76
449	10795	2.003330065586	76
449	13795	2.006243427704	76
449	18217	3.003330065586	76
449	21217	3.006243427704	76
449	25639	4.003330065586	76
449	28639	4.006243427704	76
449	33061	5.003330065586	76
449	36061	5.006243427704	76
449	40483	6.003330065586	76
449	43483	6.006243427704	76
449	47905	7.003330065586	76
449	50905	7.006243427704	76
449	55327	8.003330065586	76
449	58327	8.006243427704	76
449	62749	9.003330065586	76
449	65749	9.006243427704	76
449	70171	10.003330065586	76
449	73171	10.006243427704	76
449	77593	11.003330065586	76
449	80593	11.006243427704	76
449	85015	12.003330065586	76
449	88015	12.006243427704	76
450	3373	1.003330065586	76
450	6373	1.006243427704	76
450	10795	2.003330065586	76
450	13795	2.006243427704	76
450	18217	3.003330065586	76
450	21217	3.006243427704	76
450	25639	4.003330065586	76
450	28639	4.006243427704	76
450	33061	5.003330065586	76
450	36061	5.006243427704	76
450	40483	6.003330065586	76
450	43483	6.006243427704	76
450	47905	7.003330065586	76
450	50905	7.006243427704	76
450	55327	8.003330065586	76
450	58327	8.006243427704	76
450	62749	9.003330065586	76
450	65749	9.006243427704	76
450	70171	10.003330065586	76
450	73171	10.006243427704	76
450	77593	11.003330065586	76
450	80593	11.006243427704	76
450	85015	12.003330065586	76
450	88015	12.006243427704	76
451	3373	1.003330065586	1
451	3373	1.003330065586	0
451	6373	1.006243427704	1
451	6373	1.006243427704	0
451	10795	2.003330065586	1
451	10795	2.003330065586	0
451	13795	2.006243427704	1
451	13795	2.006243427704	0
451	18217	3.003330065586	1
451	18217	3.003330065586	0
451	21217	3.006243427704	1
451	21217	3.006243427704	0
451	25639	4.003330065586	1
451	25639	4.003330065586	0
451	28639	4.006243427704	1
451	28639	4.006243427704	0
451	33061	5.003330065586	1
451	33061	5.003330065586	0
451	36061	5.006243427704	1
451	36061	5.006243427704	0
451	40483	6.003330065586	1
451	40483	6.003330065586	0
451	43483	6.006243427704	1
451	43483	6.006243427704	0
451	47905	7.003330065586	1
451	47905	7.003330065586	0
451	50905	7.006243427704	1
451	50905	7.006243427704	0
451	55327	8.003330065586	1
451	55327	8.003330065586	0
451	58327	8.006243427704	1
451	58327	8.006243427704	0
451	62749	9.003330065586	1
451	62749	9.003330065586	0
451	65749	9.006243427704	1
451	65749	9.006243427704	0
451	70171	10.003330065586	1
451	70171	10.003330065586	0
451	73171	10.006243427704	1
451	73171	10.006243427704	0
451	77593	11.003330065586	1
451	77593	11.003330065586	0
451	80593	11.006243427704	1
451	80593	11.006243427704	0
451	85015	12.003330065586	1
451	85015	12.003330065586	0
451	88015	12.006243427704	1
451	88015	12.006243427704	0
452	3373	1.003330065586	76
452	6373	1.006243427704	76
452	10795	2.003330065586	76
452	13795	2.006243427704	76
452	18217	3.003330065586	76
452	21217	3.006243427704	76
452	25639	4.003330065586	76
452	28639	4.006243427704	76
452	33061	5.003330065586	76
452	36061	5.006243427704	76
452	40483	6.003330065586	76
452	43483	6.006243427704	76
452	47905	7.003330065586	76
452	50905	7.006243427704	76
452	55327	8.003330065586	76
452	58327	8.006243427704	76
452	62749	9.003330065586	76
452	65749	9.006243427704	76
452	70171	10.003330065586	76
452	73171	10.006243427704	76
452	77593	11.003330065586	76
452	80593	11.006243427704	76
452	85015	12.003330065586	76
452	88015	12.006243427704	76
453	3373	1.003330065586	0
453	6373	1.006243427704	0
453	10795	2.003330065586	0
453	13795	2.006243427704	0
453	18217	3.003330065586	0
453	21217	3.006243427704	0
453	25639	4.003330065586	0
453	28639	4.006243427704	0
453	33061	5.003330065586	0
453	36061	5.006243427704	0
453	40483	6.003330065586	0
453	43483	6.006243427704	0
453	47905	7.003330065586	0
453	50905	7.006243427704	0
453	55327	8.003330065586	0
453	58327	8.006243427704	0
453	62749	9.003330065586	0
453	65749	9.006243427704	0
453	70171	10.003330065586	0
453	73171	10.006243427704	0
453	77593	11.003330065586	0
453	80593	11.006243427704	0
453	85015	12.003330065586	0
453	88015	12.006243427704	0
454	3373	1.003330065586	92
454	6373	1.006243427704	92
454	10795	2.003330065586	92
454	13795	2.006243427704	92
454	18217	3.003330065586	92
454	21217	3.006243427704	92
454	25639	4.003330065586	92
454	28639	4.006243427704	92
454	33061	5.003330065586	92
454	36061	5.006243427704	92
454	40483	6.003330065586	92
454	43483	6.006243427704	92
454	47905	7.003330065586	92
454	50905	7.006243427704	92
454	55327	8.003330065586	92
454	58327	8.006243427704	92
454	62749	9.003330065586	92
454	65749	9.006243427704	92
454	70171	10.003330065586	92
454	73171	10.006243427704	92
454	77593	11.003330065586	92
454	80593	11.006243427704	92
454	85015	12.003330065586	92
454	88015	12.006243427704	92
455	3380	1.003330097825	92
455	6381	1.006243459943	92
455	10802	2.003330097825	92
455	13803	2.006243459943	92
455	18224	3.003330097825	92
455	21225	3.006243459943	92
455	25646	4.003330097825	92
455	28647	4.006243459943	92
455	33068	5.003330097825	92
455	36069	5.006243459943	92
455	40490	6.003330097825	92
455	43491	6.006243459943	92
455	47912	7.003330097825	92
455	50913	7.006243459943	92
455	55334	8.003330097825	92
455	58335	8.006243459943	92
455	62756	9.003330097825	92
455	65757	9.006243459943	92
455	70178	10.003330097825	92
455	73179	10.006243459943	92
455	77600	11.003330097825	92
455	80601	11.006243459943	92
455	85022	12.003330097825	92
455	88023	12.006243459943	92
456	3380	1.003330097825	76
456	6381	1.006243459943	76
456	10802	2.003330097825	76
456	13803	2.006243459943	76
456	18224	3.003330097825	76
456	21225	3.006243459943	76
456	25646	4.003330097825	76
456	28647	4.006243459943	76
456	33068	5.003330097825	76
456	36069	5.006243459943	76
456	40490	6.003330097825	76
456	43491	6.006243459943	76
456	47912	7.003330097825	76
456	50913	7.006243459943	76
456	55334	8.003330097825	76
456	58335	8.006243459943	76
456	62756	9.003330097825	76
456	65757	9.006243459943	76
456	70178	10.003330097825	76
456	73179	10.006243459943	76
456	77600	11.003330097825	76
456	80601	11.006243459943	76
456	85022	12.003330097825	76
456	88023	12.006243459943	76
457	3382	1.003330097825	76
457	6383	1.006243459943	76
457	10804	2.003330097825	76
457	13805	2.006243459943	76
457	18226	3.003330097825	76
457	21227	3.006243459943	76
457	25648	4.003330097825	76
457	28649	4.006243459943	76
457	33070	5.003330097825	76
457	36071	5.006243459943	76
457	40492	6.003330097825	76
457	43493	6.006243459943	76
457	47914	7.003330097825	76
457	50915	7.006243459943	76
457	55336	8.003330097825	76
457	58337	8.006243459943	76
457	62758	9.003330097825	76
457	65759	9.006243459943	76
457	70180	10.003330097825	76
457	73181	10.006243459943	76
457	77602	11.003330097825	76
457	80603	11.006243459943	76
457	85024	12.003330097825	76
457	88025	12.006243459943	76
458	3382	1.003330097825	76
458	6383	1.006243459943	76
458	10804	2.003330097825	76
458	13805	2.006243459943	76
458	18226	3.003330097825	76
458	21227	3.006243459943	76
458	25648	4.003330097825	76
458	28649	4.006243459943	76
458	33070	5.003330097825	76
458	36071	5.006243459943	76
458	40492	6.003330097825	76
458	43493	6.006243459943	76
458	47914	7.003330097825	76
458	50915	7.006243459943	76
458	55336	8.003330097825	76
458	58337	8.006243459943	76
458	62758	9.003330097825	76
458	65759	9.006243459943	76
458	70180	10.003330097825	76
458	73181	10.006243459943	76
458	77602	11.003330097825	76
458	80603	11.006243459943	76
458	85024	12.003330097825	76
458	88025	12.006243459943	76
459	3382	1.003330097825	1
459	3382	1.003330097825	0
459	6383	1.006243459943	1
459	6383	1.006243459943	0
459	10804	2.003330097825	1
459	10804	2.003330097825	0
459	13805	2.006243459943	1
459	13805	2.006243459943	0
459	18226	3.003330097825	1
459	18226	3.003330097825	0
459	21227	3.006243459943	1
459	21227	3.006243459943	0
459	25648	4.003330097825	1
459	25648	4.003330097825	0
459	28649	4.006243459943	1
459	28649	4.006243459943	0
459	33070	5.003330097825	1
459	33070	5.003330097825	0
459	36071	5.006243459943	1
459	36071	5.006243459943	0
459	40492	6.003330097825	1
459	40492	6.003330097825	0
459	43493	6.006243459943	1
459	43493	6.006243459943	0
459	47914	7.003330097825	1
459	47914	7.003330097825	0
459	50915	7.006243459943	1
459	50915	7.006243459943	0
459	55336	8.003330097825	1
459	55336	8.003330097825	0
459	58337	8.006243459943	1
459	58337	8.006243459943	0
459	62758	9.003330097825	1
459	62758	9.003330097825	0
459	65759	9.006243459943	1
459	65759	9.006243459943	0
459	70180	10.003330097825	1
459	70180	10.003330097825	0
459	73181	10.006243459943	1
459	73181	10.006243459943	0
459	77602	11.003330097825	1
459	77602	11.003330097825	0
459	80603	11.006243459943	1
459	80603	11.006243459943	0
459	85024	12.003330097825	1
459	85024	12.003330097825	0
459	88025	12.006243459943	1
459	88025	12.006243459943	0
460	3382	1.003330097825	76
460	6383	1.006243459943	76
460	10804	2.003330097825	76
460	13805	2.006243459943	76
460	18226	3.003330097825	76
460	21227	3.006243459943	76
460	25648	4.003330097825	76
460	28649	4.006243459943	76
460	33070	5.003330097825	76
460	36071	5.006243459943	76
460	40492	6.003330097825	76
460	43493	6.006243459943	76
460	47914	7.003330097825	76
460	50915	7.006243459943	76
460	55336	8.003330097825	76
460	58337	8.006243459943	76
460	62758	9.003330097825	76
460	65759	9.006243459943	76
460	70180	10.003330097825	76
460	73181	10.006243459943	76
460	77602	11.003330097825	76
460	80603	11.006243459943	76
460	85024	12.003330097825	76
460	88025	12.006243459943	76
461	3382	1.003330097825	0
461	6383	1.006243459943	0
461	10804	2.003330097825	0
461	13805	2.006243459943	0
461	18226	3.003330097825	0
461	21227	3.006243459943	0
461	25648	4.003330097825	0
461	28649	4.006243459943	0
461	33070	5.003330097825	0
461	36071	5.006243459943	0
461	40492	6.003330097825	0
461	43493	6.006243459943	0
461	47914	7.003330097825	0
461	50915	7.006243459943	0
461	55336	8.003330097825	0
461	58337	8.006243459943	0
461	62758	9.003330097825	0
461	65759	9.006243459943	0
461	70180	10.003330097825	0
461	73181	10.006243459943	0
461	77602	11.003330097825	0
461	80603	11.006243459943	0
461	85024	12.003330097825	0
461	88025	12.006243459943	0
462	3382	1.003330097825	92
462	6383	1.006243459943	92
462	10804	2.003330097825	92
462	13805	2.006243459943	92
462	18226	3.003330097825	92
462	21227	3.006243459943	92
462	25648	4.003330097825	92
462	28649	4.006243459943	92
462	33070	5.003330097825	92
462	36071	5.006243459943	92
462	40492	6.003330097825	92
462	43493	6.006243459943	92
462	47914	7.003330097825	92
462	50915	7.006243459943	92
462	55336	8.003330097825	92
462	58337	8.006243459943	92
462	62758	9.003330097825	92
462	65759	9.006243459943	92
462	70180	10.003330097825	92
462	73181	10.006243459943	92
462	77602	11.003330097825	92
462	80603	11.006243459943	92
462	85024	12.003330097825	92
462	88025	12.006243459943	92
463	6425	1.006243645586	0
463	13847	2.006243645586	1
463	21269	3.006243645586	2
463	28691	4.006243645586	3
463	36113	5.006243645586	4
463	43535	6.006243645586	5
463	50957	7.006243645586	6
463	58379	8.006243645586	7
463	65801	9.006243645586	8
463	73223	10.006243645586	9
463	80645	11.006243645586	10
463	88067	12.006243645586	11
464	6425	1.006243645586	0.006243645586
464	13847	2.006243645586	0.006243645586
464	21269	3.006243645586	0.006243645586
464	28691	4.006243645586	0.006243645586
464	36113	5.006243645586	0.006243645586
464	43535	6.006243645586	0.006243645586
464	50957	7.006243645586	0.006243645586
464	58379	8.006243645586	0.006243645586
464	65801	9.006243645586	0.006243645586
464	73223	10.006243645586	0.006243645586
464	80645	11.006243645586	0.006243645586
464	88067	12.006243645586	0.006243645586

