version 2
run TarpFSlowMobility-0-20210910-21:32:14-8672
attr configname TarpFSlowMobility
attr datetime 20210910-21:32:14
attr experiment TarpFSlowMobility
attr inifile omnetpp.ini
attr iterationvars ""
attr iterationvarsf ""
attr measurement ""
attr network TARPNetwork
attr processid 8672
attr repetition 0
attr replication #0
attr resultdir results
attr runnumber 0
attr seedset 0
param **.node[*].mobility.typename "\"MassMobility\""
param **.node[*].mobility.changeInterval "normal(5s, 0.1s)"
param **.node[*].mobility.angleDelta "normal(0deg, 30deg)"
param **.node[*].mobility.speed "normal(2mps, 0.01mps)"
param *.visualizer.mobilityVisualizer.displayVelocities true
param *.visualizer.mobilityVisualizer.displayMovementTrails true
param **.node[*].mobility.typename "\"StationaryMobility\""
param **.mobility.constraintAreaMinZ 0m
param **.mobility.constraintAreaMaxZ 0m
param **.mobility.constraintAreaMinX 0m
param **.mobility.constraintAreaMinY 0m
param **.mobility.constraintAreaMaxX 500m
param **.mobility.constraintAreaMaxY 500m
param **.numNodes 30
param *.node*.typename "\"Node\""
param *.nodeA.numApps 1
param *.nodeA.app[0].typename "\"PingApp\""
param *.nodeA.app[0].destAddr "\"nodeB\""
param *.nodeA.app[0].startTime 1s
param **.wlan[*].typename "\"AckingWirelessInterface\""
param **.bitrate 2Mbps
param **.wlan[*].radio.transmitter.communicationRange 100m
param **.wlan[*].radio.transmitter.interferenceRange 0m
param **.wlan[*].radio.transmitter.detectionRange 0m
param **.wlan[*].radio.receiver.ignoreInterference true
param *.node*.wlan[0].radio.displayCommunicationRange true
param *.nodeB.wlan[0].radio.displayCommunicationRange true
param *.visualizer.dataLinkVisualizer.displayLinks true
param *.visualizer.networkRouteVisualizer.displayRoutes true
param *.visualizer.*LinkVisualizer.lineShift 0
param *.visualizer.networkRouteVisualizer.lineShift 0
param *.visualizer.networkRouteVisualizer.packetFilter "\"TARP*\""
param **.hasIpv4 false
param **.hasIpv6 false
param **.hasGn true
param **.forwarding true
param **.generic.typename "\"SimpleNetworkLayer\""
param **.generic.np.typename "\"TarpF\""
param **.app[*].networkProtocol "\"tarpf\""

vector 0 TARPNetwork.node[0].wlan[0].radio radioMode:vector ETV
attr interpolationmode sample-hold
attr source radioModeChanged
attr title "Radio mode, vector"
vector 1 TARPNetwork.node[1].wlan[0].radio radioMode:vector ETV
attr interpolationmode sample-hold
attr source radioModeChanged
attr title "Radio mode, vector"
vector 2 TARPNetwork.node[2].wlan[0].radio radioMode:vector ETV
attr interpolationmode sample-hold
attr source radioModeChanged
attr title "Radio mode, vector"
vector 3 TARPNetwork.node[3].wlan[0].radio radioMode:vector ETV
attr interpolationmode sample-hold
attr source radioModeChanged
attr title "Radio mode, vector"
vector 4 TARPNetwork.node[4].wlan[0].radio radioMode:vector ETV
attr interpolationmode sample-hold
attr source radioModeChanged
attr title "Radio mode, vector"
vector 5 TARPNetwork.node[5].wlan[0].radio radioMode:vector ETV
attr interpolationmode sample-hold
attr source radioModeChanged
attr title "Radio mode, vector"
vector 6 TARPNetwork.node[6].wlan[0].radio radioMode:vector ETV
attr interpolationmode sample-hold
attr source radioModeChanged
attr title "Radio mode, vector"
vector 7 TARPNetwork.node[7].wlan[0].radio radioMode:vector ETV
attr interpolationmode sample-hold
attr source radioModeChanged
attr title "Radio mode, vector"
vector 8 TARPNetwork.node[8].wlan[0].radio radioMode:vector ETV
attr interpolationmode sample-hold
attr source radioModeChanged
attr title "Radio mode, vector"
vector 9 TARPNetwork.node[9].wlan[0].radio radioMode:vector ETV
attr interpolationmode sample-hold
attr source radioModeChanged
attr title "Radio mode, vector"
vector 10 TARPNetwork.node[10].wlan[0].radio radioMode:vector ETV
attr interpolationmode sample-hold
attr source radioModeChanged
attr title "Radio mode, vector"
vector 11 TARPNetwork.node[11].wlan[0].radio radioMode:vector ETV
attr interpolationmode sample-hold
attr source radioModeChanged
attr title "Radio mode, vector"
vector 12 TARPNetwork.node[12].wlan[0].radio radioMode:vector ETV
attr interpolationmode sample-hold
attr source radioModeChanged
attr title "Radio mode, vector"
vector 13 TARPNetwork.node[13].wlan[0].radio radioMode:vector ETV
attr interpolationmode sample-hold
attr source radioModeChanged
attr title "Radio mode, vector"
vector 14 TARPNetwork.node[14].wlan[0].radio radioMode:vector ETV
attr interpolationmode sample-hold
attr source radioModeChanged
attr title "Radio mode, vector"
vector 15 TARPNetwork.node[15].wlan[0].radio radioMode:vector ETV
attr interpolationmode sample-hold
attr source radioModeChanged
attr title "Radio mode, vector"
vector 16 TARPNetwork.node[16].wlan[0].radio radioMode:vector ETV
attr interpolationmode sample-hold
attr source radioModeChanged
attr title "Radio mode, vector"
vector 17 TARPNetwork.node[17].wlan[0].radio radioMode:vector ETV
attr interpolationmode sample-hold
attr source radioModeChanged
attr title "Radio mode, vector"
vector 18 TARPNetwork.node[18].wlan[0].radio radioMode:vector ETV
attr interpolationmode sample-hold
attr source radioModeChanged
attr title "Radio mode, vector"
vector 19 TARPNetwork.node[19].wlan[0].radio radioMode:vector ETV
attr interpolationmode sample-hold
attr source radioModeChanged
attr title "Radio mode, vector"
vector 20 TARPNetwork.node[20].wlan[0].radio radioMode:vector ETV
attr interpolationmode sample-hold
attr source radioModeChanged
attr title "Radio mode, vector"
vector 21 TARPNetwork.node[21].wlan[0].radio radioMode:vector ETV
attr interpolationmode sample-hold
attr source radioModeChanged
attr title "Radio mode, vector"
vector 22 TARPNetwork.node[22].wlan[0].radio radioMode:vector ETV
attr interpolationmode sample-hold
attr source radioModeChanged
attr title "Radio mode, vector"
vector 23 TARPNetwork.node[23].wlan[0].radio radioMode:vector ETV
attr interpolationmode sample-hold
attr source radioModeChanged
attr title "Radio mode, vector"
vector 24 TARPNetwork.node[24].wlan[0].radio radioMode:vector ETV
attr interpolationmode sample-hold
attr source radioModeChanged
attr title "Radio mode, vector"
vector 25 TARPNetwork.node[25].wlan[0].radio radioMode:vector ETV
attr interpolationmode sample-hold
attr source radioModeChanged
attr title "Radio mode, vector"
vector 26 TARPNetwork.node[26].wlan[0].radio radioMode:vector ETV
attr interpolationmode sample-hold
attr source radioModeChanged
attr title "Radio mode, vector"
vector 27 TARPNetwork.node[27].wlan[0].radio radioMode:vector ETV
attr interpolationmode sample-hold
attr source radioModeChanged
attr title "Radio mode, vector"
vector 28 TARPNetwork.node[28].wlan[0].radio radioMode:vector ETV
attr interpolationmode sample-hold
attr source radioModeChanged
attr title "Radio mode, vector"
vector 29 TARPNetwork.node[29].wlan[0].radio radioMode:vector ETV
attr interpolationmode sample-hold
attr source radioModeChanged
attr title "Radio mode, vector"
vector 30 TARPNetwork.nodeA.wlan[0].radio radioMode:vector ETV
attr interpolationmode sample-hold
attr source radioModeChanged
attr title "Radio mode, vector"
vector 31 TARPNetwork.nodeB.wlan[0].radio radioMode:vector ETV
attr interpolationmode sample-hold
attr source radioModeChanged
attr title "Radio mode, vector"
vector 32 TARPNetwork.node[0].wlan[0].radio receptionState:vector ETV
attr interpolationmode sample-hold
attr source receptionStateChanged
attr title "Radio reception state, vector"
vector 33 TARPNetwork.node[0].wlan[0].radio transmissionState:vector ETV
attr interpolationmode sample-hold
attr source transmissionStateChanged
attr title "Radio transmission state, vector"
vector 34 TARPNetwork.node[1].wlan[0].radio receptionState:vector ETV
attr interpolationmode sample-hold
attr source receptionStateChanged
attr title "Radio reception state, vector"
vector 35 TARPNetwork.node[1].wlan[0].radio transmissionState:vector ETV
attr interpolationmode sample-hold
attr source transmissionStateChanged
attr title "Radio transmission state, vector"
vector 36 TARPNetwork.node[2].wlan[0].radio receptionState:vector ETV
attr interpolationmode sample-hold
attr source receptionStateChanged
attr title "Radio reception state, vector"
vector 37 TARPNetwork.node[2].wlan[0].radio transmissionState:vector ETV
attr interpolationmode sample-hold
attr source transmissionStateChanged
attr title "Radio transmission state, vector"
vector 38 TARPNetwork.node[3].wlan[0].radio receptionState:vector ETV
attr interpolationmode sample-hold
attr source receptionStateChanged
attr title "Radio reception state, vector"
vector 39 TARPNetwork.node[3].wlan[0].radio transmissionState:vector ETV
attr interpolationmode sample-hold
attr source transmissionStateChanged
attr title "Radio transmission state, vector"
vector 40 TARPNetwork.node[4].wlan[0].radio receptionState:vector ETV
attr interpolationmode sample-hold
attr source receptionStateChanged
attr title "Radio reception state, vector"
vector 41 TARPNetwork.node[4].wlan[0].radio transmissionState:vector ETV
attr interpolationmode sample-hold
attr source transmissionStateChanged
attr title "Radio transmission state, vector"
vector 42 TARPNetwork.node[5].wlan[0].radio receptionState:vector ETV
attr interpolationmode sample-hold
attr source receptionStateChanged
attr title "Radio reception state, vector"
vector 43 TARPNetwork.node[5].wlan[0].radio transmissionState:vector ETV
attr interpolationmode sample-hold
attr source transmissionStateChanged
attr title "Radio transmission state, vector"
vector 44 TARPNetwork.node[6].wlan[0].radio receptionState:vector ETV
attr interpolationmode sample-hold
attr source receptionStateChanged
attr title "Radio reception state, vector"
vector 45 TARPNetwork.node[6].wlan[0].radio transmissionState:vector ETV
attr interpolationmode sample-hold
attr source transmissionStateChanged
attr title "Radio transmission state, vector"
vector 46 TARPNetwork.node[7].wlan[0].radio receptionState:vector ETV
attr interpolationmode sample-hold
attr source receptionStateChanged
attr title "Radio reception state, vector"
vector 47 TARPNetwork.node[7].wlan[0].radio transmissionState:vector ETV
attr interpolationmode sample-hold
attr source transmissionStateChanged
attr title "Radio transmission state, vector"
vector 48 TARPNetwork.node[8].wlan[0].radio receptionState:vector ETV
attr interpolationmode sample-hold
attr source receptionStateChanged
attr title "Radio reception state, vector"
vector 49 TARPNetwork.node[8].wlan[0].radio transmissionState:vector ETV
attr interpolationmode sample-hold
attr source transmissionStateChanged
attr title "Radio transmission state, vector"
vector 50 TARPNetwork.node[9].wlan[0].radio receptionState:vector ETV
attr interpolationmode sample-hold
attr source receptionStateChanged
attr title "Radio reception state, vector"
vector 51 TARPNetwork.node[9].wlan[0].radio transmissionState:vector ETV
attr interpolationmode sample-hold
attr source transmissionStateChanged
attr title "Radio transmission state, vector"
vector 52 TARPNetwork.node[10].wlan[0].radio receptionState:vector ETV
attr interpolationmode sample-hold
attr source receptionStateChanged
attr title "Radio reception state, vector"
vector 53 TARPNetwork.node[10].wlan[0].radio transmissionState:vector ETV
attr interpolationmode sample-hold
attr source transmissionStateChanged
attr title "Radio transmission state, vector"
vector 54 TARPNetwork.node[11].wlan[0].radio receptionState:vector ETV
attr interpolationmode sample-hold
attr source receptionStateChanged
attr title "Radio reception state, vector"
vector 55 TARPNetwork.node[11].wlan[0].radio transmissionState:vector ETV
attr interpolationmode sample-hold
attr source transmissionStateChanged
attr title "Radio transmission state, vector"
vector 56 TARPNetwork.node[12].wlan[0].radio receptionState:vector ETV
attr interpolationmode sample-hold
attr source receptionStateChanged
attr title "Radio reception state, vector"
vector 57 TARPNetwork.node[12].wlan[0].radio transmissionState:vector ETV
attr interpolationmode sample-hold
attr source transmissionStateChanged
attr title "Radio transmission state, vector"
vector 58 TARPNetwork.node[13].wlan[0].radio receptionState:vector ETV
attr interpolationmode sample-hold
attr source receptionStateChanged
attr title "Radio reception state, vector"
vector 59 TARPNetwork.node[13].wlan[0].radio transmissionState:vector ETV
attr interpolationmode sample-hold
attr source transmissionStateChanged
attr title "Radio transmission state, vector"
vector 60 TARPNetwork.node[14].wlan[0].radio receptionState:vector ETV
attr interpolationmode sample-hold
attr source receptionStateChanged
attr title "Radio reception state, vector"
vector 61 TARPNetwork.node[14].wlan[0].radio transmissionState:vector ETV
attr interpolationmode sample-hold
attr source transmissionStateChanged
attr title "Radio transmission state, vector"
vector 62 TARPNetwork.node[15].wlan[0].radio receptionState:vector ETV
attr interpolationmode sample-hold
attr source receptionStateChanged
attr title "Radio reception state, vector"
vector 63 TARPNetwork.node[15].wlan[0].radio transmissionState:vector ETV
attr interpolationmode sample-hold
attr source transmissionStateChanged
attr title "Radio transmission state, vector"
vector 64 TARPNetwork.node[16].wlan[0].radio receptionState:vector ETV
attr interpolationmode sample-hold
attr source receptionStateChanged
attr title "Radio reception state, vector"
vector 65 TARPNetwork.node[16].wlan[0].radio transmissionState:vector ETV
attr interpolationmode sample-hold
attr source transmissionStateChanged
attr title "Radio transmission state, vector"
vector 66 TARPNetwork.node[17].wlan[0].radio receptionState:vector ETV
attr interpolationmode sample-hold
attr source receptionStateChanged
attr title "Radio reception state, vector"
vector 67 TARPNetwork.node[17].wlan[0].radio transmissionState:vector ETV
attr interpolationmode sample-hold
attr source transmissionStateChanged
attr title "Radio transmission state, vector"
vector 68 TARPNetwork.node[18].wlan[0].radio receptionState:vector ETV
attr interpolationmode sample-hold
attr source receptionStateChanged
attr title "Radio reception state, vector"
vector 69 TARPNetwork.node[18].wlan[0].radio transmissionState:vector ETV
attr interpolationmode sample-hold
attr source transmissionStateChanged
attr title "Radio transmission state, vector"
vector 70 TARPNetwork.node[19].wlan[0].radio receptionState:vector ETV
attr interpolationmode sample-hold
attr source receptionStateChanged
attr title "Radio reception state, vector"
vector 71 TARPNetwork.node[19].wlan[0].radio transmissionState:vector ETV
attr interpolationmode sample-hold
attr source transmissionStateChanged
attr title "Radio transmission state, vector"
vector 72 TARPNetwork.node[20].wlan[0].radio receptionState:vector ETV
attr interpolationmode sample-hold
attr source receptionStateChanged
attr title "Radio reception state, vector"
vector 73 TARPNetwork.node[20].wlan[0].radio transmissionState:vector ETV
attr interpolationmode sample-hold
attr source transmissionStateChanged
attr title "Radio transmission state, vector"
vector 74 TARPNetwork.node[21].wlan[0].radio receptionState:vector ETV
attr interpolationmode sample-hold
attr source receptionStateChanged
attr title "Radio reception state, vector"
vector 75 TARPNetwork.node[21].wlan[0].radio transmissionState:vector ETV
attr interpolationmode sample-hold
attr source transmissionStateChanged
attr title "Radio transmission state, vector"
vector 76 TARPNetwork.node[22].wlan[0].radio receptionState:vector ETV
attr interpolationmode sample-hold
attr source receptionStateChanged
attr title "Radio reception state, vector"
vector 77 TARPNetwork.node[22].wlan[0].radio transmissionState:vector ETV
attr interpolationmode sample-hold
attr source transmissionStateChanged
attr title "Radio transmission state, vector"
vector 78 TARPNetwork.node[23].wlan[0].radio receptionState:vector ETV
attr interpolationmode sample-hold
attr source receptionStateChanged
attr title "Radio reception state, vector"
vector 79 TARPNetwork.node[23].wlan[0].radio transmissionState:vector ETV
attr interpolationmode sample-hold
attr source transmissionStateChanged
attr title "Radio transmission state, vector"
vector 80 TARPNetwork.node[24].wlan[0].radio receptionState:vector ETV
attr interpolationmode sample-hold
attr source receptionStateChanged
attr title "Radio reception state, vector"
vector 81 TARPNetwork.node[24].wlan[0].radio transmissionState:vector ETV
attr interpolationmode sample-hold
attr source transmissionStateChanged
attr title "Radio transmission state, vector"
vector 82 TARPNetwork.node[25].wlan[0].radio receptionState:vector ETV
attr interpolationmode sample-hold
attr source receptionStateChanged
attr title "Radio reception state, vector"
vector 83 TARPNetwork.node[25].wlan[0].radio transmissionState:vector ETV
attr interpolationmode sample-hold
attr source transmissionStateChanged
attr title "Radio transmission state, vector"
vector 84 TARPNetwork.node[26].wlan[0].radio receptionState:vector ETV
attr interpolationmode sample-hold
attr source receptionStateChanged
attr title "Radio reception state, vector"
vector 85 TARPNetwork.node[26].wlan[0].radio transmissionState:vector ETV
attr interpolationmode sample-hold
attr source transmissionStateChanged
attr title "Radio transmission state, vector"
vector 86 TARPNetwork.node[27].wlan[0].radio receptionState:vector ETV
attr interpolationmode sample-hold
attr source receptionStateChanged
attr title "Radio reception state, vector"
vector 87 TARPNetwork.node[27].wlan[0].radio transmissionState:vector ETV
attr interpolationmode sample-hold
attr source transmissionStateChanged
attr title "Radio transmission state, vector"
vector 88 TARPNetwork.node[28].wlan[0].radio receptionState:vector ETV
attr interpolationmode sample-hold
attr source receptionStateChanged
attr title "Radio reception state, vector"
vector 89 TARPNetwork.node[28].wlan[0].radio transmissionState:vector ETV
attr interpolationmode sample-hold
attr source transmissionStateChanged
attr title "Radio transmission state, vector"
vector 90 TARPNetwork.node[29].wlan[0].radio receptionState:vector ETV
attr interpolationmode sample-hold
attr source receptionStateChanged
attr title "Radio reception state, vector"
vector 91 TARPNetwork.node[29].wlan[0].radio transmissionState:vector ETV
attr interpolationmode sample-hold
attr source transmissionStateChanged
attr title "Radio transmission state, vector"
vector 92 TARPNetwork.nodeA.wlan[0].radio receptionState:vector ETV
attr interpolationmode sample-hold
attr source receptionStateChanged
attr title "Radio reception state, vector"
vector 93 TARPNetwork.nodeA.wlan[0].radio transmissionState:vector ETV
attr interpolationmode sample-hold
attr source transmissionStateChanged
attr title "Radio transmission state, vector"
vector 94 TARPNetwork.nodeB.wlan[0].radio receptionState:vector ETV
attr interpolationmode sample-hold
attr source receptionStateChanged
attr title "Radio reception state, vector"
vector 95 TARPNetwork.nodeB.wlan[0].radio transmissionState:vector ETV
attr interpolationmode sample-hold
attr source transmissionStateChanged
attr title "Radio transmission state, vector"
vector 96 TARPNetwork.nodeA.app[0] pingTxSeq:vector ETV
attr interpolationmode none
attr title "ping tx seq, vector"
vector 97 TARPNetwork.nodeA.wlan[0].mac rcvdPkFromHl:vector(packetBytes) ETV
attr interpolationmode none
attr source packetReceivedFromUpper
attr title "packets received from higher layer, vector(packetBytes)"
vector 98 TARPNetwork.nodeA.wlan[0].mac.queue packetPushed:vector(packetBytes) ETV
attr interpolationmode none
attr title "packet pushed, vector(packetBytes)"
vector 99 TARPNetwork.nodeA.wlan[0].mac.queue queueLength:vector ETV
attr interpolationmode sample-hold
attr source "count(packetPushed) - count(packetPopped) - count(packetRemoved) - count(packetDropped)"
attr title "queue length, vector"
vector 100 TARPNetwork.nodeA.wlan[0].mac.queue packetPopped:vector(packetBytes) ETV
attr interpolationmode none
attr title "packet popped, vector(packetBytes)"
vector 101 TARPNetwork.nodeA.wlan[0].mac.queue queueingTime:vector ETV
attr interpolationmode none
attr source queueingTime(packetPopped)
attr title "queueing times, vector"
attr unit s
vector 102 TARPNetwork.nodeA.wlan[0].mac sentDownPk:vector(packetBytes) ETV
attr interpolationmode none
attr source packetSentToLower
attr title "packets sent to lower layer, vector(packetBytes)"
vector 103 TARPNetwork.node[0].wlan[0].mac rcvdPkFromLl:vector(packetBytes) ETV
attr interpolationmode none
attr source packetReceivedFromLower
attr title "packets received from lower layer, vector(packetBytes)"
vector 104 TARPNetwork.node[0].wlan[0].mac passedUpPk:vector(packetBytes) ETV
attr interpolationmode none
attr source packetSentToUpper
attr title "packets passed to higher layer, vector(packetBytes)"
vector 105 TARPNetwork.node[0].wlan[0].mac rcvdPkFromHl:vector(packetBytes) ETV
attr interpolationmode none
attr source packetReceivedFromUpper
attr title "packets received from higher layer, vector(packetBytes)"
vector 106 TARPNetwork.node[0].wlan[0].mac.queue packetPushed:vector(packetBytes) ETV
attr interpolationmode none
attr title "packet pushed, vector(packetBytes)"
vector 107 TARPNetwork.node[0].wlan[0].mac.queue queueLength:vector ETV
attr interpolationmode sample-hold
attr source "count(packetPushed) - count(packetPopped) - count(packetRemoved) - count(packetDropped)"
attr title "queue length, vector"
vector 108 TARPNetwork.node[0].wlan[0].mac.queue packetPopped:vector(packetBytes) ETV
attr interpolationmode none
attr title "packet popped, vector(packetBytes)"
vector 109 TARPNetwork.node[0].wlan[0].mac.queue queueingTime:vector ETV
attr interpolationmode none
attr source queueingTime(packetPopped)
attr title "queueing times, vector"
attr unit s
vector 110 TARPNetwork.node[0].wlan[0].mac sentDownPk:vector(packetBytes) ETV
attr interpolationmode none
attr source packetSentToLower
attr title "packets sent to lower layer, vector(packetBytes)"
vector 111 TARPNetwork.node[10].wlan[0].mac rcvdPkFromLl:vector(packetBytes) ETV
attr interpolationmode none
attr source packetReceivedFromLower
attr title "packets received from lower layer, vector(packetBytes)"
vector 112 TARPNetwork.node[10].wlan[0].mac passedUpPk:vector(packetBytes) ETV
attr interpolationmode none
attr source packetSentToUpper
attr title "packets passed to higher layer, vector(packetBytes)"
vector 113 TARPNetwork.node[10].wlan[0].mac rcvdPkFromHl:vector(packetBytes) ETV
attr interpolationmode none
attr source packetReceivedFromUpper
attr title "packets received from higher layer, vector(packetBytes)"
vector 114 TARPNetwork.node[10].wlan[0].mac.queue packetPushed:vector(packetBytes) ETV
attr interpolationmode none
attr title "packet pushed, vector(packetBytes)"
vector 115 TARPNetwork.node[10].wlan[0].mac.queue queueLength:vector ETV
attr interpolationmode sample-hold
attr source "count(packetPushed) - count(packetPopped) - count(packetRemoved) - count(packetDropped)"
attr title "queue length, vector"
vector 116 TARPNetwork.node[10].wlan[0].mac.queue packetPopped:vector(packetBytes) ETV
attr interpolationmode none
attr title "packet popped, vector(packetBytes)"
vector 117 TARPNetwork.node[10].wlan[0].mac.queue queueingTime:vector ETV
attr interpolationmode none
attr source queueingTime(packetPopped)
attr title "queueing times, vector"
attr unit s
vector 118 TARPNetwork.node[10].wlan[0].mac sentDownPk:vector(packetBytes) ETV
attr interpolationmode none
attr source packetSentToLower
attr title "packets sent to lower layer, vector(packetBytes)"
vector 119 TARPNetwork.node[17].wlan[0].mac rcvdPkFromLl:vector(packetBytes) ETV
attr interpolationmode none
attr source packetReceivedFromLower
attr title "packets received from lower layer, vector(packetBytes)"
vector 120 TARPNetwork.node[17].wlan[0].mac passedUpPk:vector(packetBytes) ETV
attr interpolationmode none
attr source packetSentToUpper
attr title "packets passed to higher layer, vector(packetBytes)"
vector 121 TARPNetwork.node[17].wlan[0].mac rcvdPkFromHl:vector(packetBytes) ETV
attr interpolationmode none
attr source packetReceivedFromUpper
attr title "packets received from higher layer, vector(packetBytes)"
vector 122 TARPNetwork.node[17].wlan[0].mac.queue packetPushed:vector(packetBytes) ETV
attr interpolationmode none
attr title "packet pushed, vector(packetBytes)"
vector 123 TARPNetwork.node[17].wlan[0].mac.queue queueLength:vector ETV
attr interpolationmode sample-hold
attr source "count(packetPushed) - count(packetPopped) - count(packetRemoved) - count(packetDropped)"
attr title "queue length, vector"
vector 124 TARPNetwork.node[17].wlan[0].mac.queue packetPopped:vector(packetBytes) ETV
attr interpolationmode none
attr title "packet popped, vector(packetBytes)"
vector 125 TARPNetwork.node[17].wlan[0].mac.queue queueingTime:vector ETV
attr interpolationmode none
attr source queueingTime(packetPopped)
attr title "queueing times, vector"
attr unit s
vector 126 TARPNetwork.node[17].wlan[0].mac sentDownPk:vector(packetBytes) ETV
attr interpolationmode none
attr source packetSentToLower
attr title "packets sent to lower layer, vector(packetBytes)"
vector 127 TARPNetwork.node[27].wlan[0].mac rcvdPkFromLl:vector(packetBytes) ETV
attr interpolationmode none
attr source packetReceivedFromLower
attr title "packets received from lower layer, vector(packetBytes)"
vector 128 TARPNetwork.node[27].wlan[0].mac passedUpPk:vector(packetBytes) ETV
attr interpolationmode none
attr source packetSentToUpper
attr title "packets passed to higher layer, vector(packetBytes)"
vector 129 TARPNetwork.node[27].wlan[0].mac rcvdPkFromHl:vector(packetBytes) ETV
attr interpolationmode none
attr source packetReceivedFromUpper
attr title "packets received from higher layer, vector(packetBytes)"
vector 130 TARPNetwork.node[27].wlan[0].mac.queue packetPushed:vector(packetBytes) ETV
attr interpolationmode none
attr title "packet pushed, vector(packetBytes)"
vector 131 TARPNetwork.node[27].wlan[0].mac.queue queueLength:vector ETV
attr interpolationmode sample-hold
attr source "count(packetPushed) - count(packetPopped) - count(packetRemoved) - count(packetDropped)"
attr title "queue length, vector"
vector 132 TARPNetwork.node[27].wlan[0].mac.queue packetPopped:vector(packetBytes) ETV
attr interpolationmode none
attr title "packet popped, vector(packetBytes)"
vector 133 TARPNetwork.node[27].wlan[0].mac.queue queueingTime:vector ETV
attr interpolationmode none
attr source queueingTime(packetPopped)
attr title "queueing times, vector"
attr unit s
vector 134 TARPNetwork.node[27].wlan[0].mac sentDownPk:vector(packetBytes) ETV
attr interpolationmode none
attr source packetSentToLower
attr title "packets sent to lower layer, vector(packetBytes)"
vector 135 TARPNetwork.nodeA.wlan[0].mac rcvdPkFromLl:vector(packetBytes) ETV
attr interpolationmode none
attr source packetReceivedFromLower
attr title "packets received from lower layer, vector(packetBytes)"
vector 136 TARPNetwork.nodeA.wlan[0].mac passedUpPk:vector(packetBytes) ETV
attr interpolationmode none
attr source packetSentToUpper
attr title "packets passed to higher layer, vector(packetBytes)"
vector 137 TARPNetwork.node[28].wlan[0].mac rcvdPkFromLl:vector(packetBytes) ETV
attr interpolationmode none
attr source packetReceivedFromLower
attr title "packets received from lower layer, vector(packetBytes)"
vector 138 TARPNetwork.node[28].wlan[0].mac passedUpPk:vector(packetBytes) ETV
attr interpolationmode none
attr source packetSentToUpper
attr title "packets passed to higher layer, vector(packetBytes)"
vector 139 TARPNetwork.node[28].wlan[0].mac rcvdPkFromHl:vector(packetBytes) ETV
attr interpolationmode none
attr source packetReceivedFromUpper
attr title "packets received from higher layer, vector(packetBytes)"
vector 140 TARPNetwork.node[28].wlan[0].mac.queue packetPushed:vector(packetBytes) ETV
attr interpolationmode none
attr title "packet pushed, vector(packetBytes)"
vector 141 TARPNetwork.node[28].wlan[0].mac.queue queueLength:vector ETV
attr interpolationmode sample-hold
attr source "count(packetPushed) - count(packetPopped) - count(packetRemoved) - count(packetDropped)"
attr title "queue length, vector"
vector 142 TARPNetwork.node[28].wlan[0].mac.queue packetPopped:vector(packetBytes) ETV
attr interpolationmode none
attr title "packet popped, vector(packetBytes)"
vector 143 TARPNetwork.node[28].wlan[0].mac.queue queueingTime:vector ETV
attr interpolationmode none
attr source queueingTime(packetPopped)
attr title "queueing times, vector"
attr unit s
vector 144 TARPNetwork.node[28].wlan[0].mac sentDownPk:vector(packetBytes) ETV
attr interpolationmode none
attr source packetSentToLower
attr title "packets sent to lower layer, vector(packetBytes)"
vector 145 TARPNetwork.node[4].wlan[0].mac rcvdPkFromLl:vector(packetBytes) ETV
attr interpolationmode none
attr source packetReceivedFromLower
attr title "packets received from lower layer, vector(packetBytes)"
vector 146 TARPNetwork.node[4].wlan[0].mac passedUpPk:vector(packetBytes) ETV
attr interpolationmode none
attr source packetSentToUpper
attr title "packets passed to higher layer, vector(packetBytes)"
vector 147 TARPNetwork.node[4].wlan[0].mac rcvdPkFromHl:vector(packetBytes) ETV
attr interpolationmode none
attr source packetReceivedFromUpper
attr title "packets received from higher layer, vector(packetBytes)"
vector 148 TARPNetwork.node[4].wlan[0].mac.queue packetPushed:vector(packetBytes) ETV
attr interpolationmode none
attr title "packet pushed, vector(packetBytes)"
vector 149 TARPNetwork.node[4].wlan[0].mac.queue queueLength:vector ETV
attr interpolationmode sample-hold
attr source "count(packetPushed) - count(packetPopped) - count(packetRemoved) - count(packetDropped)"
attr title "queue length, vector"
vector 150 TARPNetwork.node[4].wlan[0].mac.queue packetPopped:vector(packetBytes) ETV
attr interpolationmode none
attr title "packet popped, vector(packetBytes)"
vector 151 TARPNetwork.node[4].wlan[0].mac.queue queueingTime:vector ETV
attr interpolationmode none
attr source queueingTime(packetPopped)
attr title "queueing times, vector"
attr unit s
vector 152 TARPNetwork.node[4].wlan[0].mac sentDownPk:vector(packetBytes) ETV
attr interpolationmode none
attr source packetSentToLower
attr title "packets sent to lower layer, vector(packetBytes)"
vector 153 TARPNetwork.node[26].wlan[0].mac rcvdPkFromLl:vector(packetBytes) ETV
attr interpolationmode none
attr source packetReceivedFromLower
attr title "packets received from lower layer, vector(packetBytes)"
vector 154 TARPNetwork.node[26].wlan[0].mac passedUpPk:vector(packetBytes) ETV
attr interpolationmode none
attr source packetSentToUpper
attr title "packets passed to higher layer, vector(packetBytes)"
vector 155 TARPNetwork.node[26].wlan[0].mac rcvdPkFromHl:vector(packetBytes) ETV
attr interpolationmode none
attr source packetReceivedFromUpper
attr title "packets received from higher layer, vector(packetBytes)"
vector 156 TARPNetwork.node[26].wlan[0].mac.queue packetPushed:vector(packetBytes) ETV
attr interpolationmode none
attr title "packet pushed, vector(packetBytes)"
vector 157 TARPNetwork.node[26].wlan[0].mac.queue queueLength:vector ETV
attr interpolationmode sample-hold
attr source "count(packetPushed) - count(packetPopped) - count(packetRemoved) - count(packetDropped)"
attr title "queue length, vector"
vector 158 TARPNetwork.node[26].wlan[0].mac.queue packetPopped:vector(packetBytes) ETV
attr interpolationmode none
attr title "packet popped, vector(packetBytes)"
vector 159 TARPNetwork.node[26].wlan[0].mac.queue queueingTime:vector ETV
attr interpolationmode none
attr source queueingTime(packetPopped)
attr title "queueing times, vector"
attr unit s
vector 160 TARPNetwork.node[26].wlan[0].mac sentDownPk:vector(packetBytes) ETV
attr interpolationmode none
attr source packetSentToLower
attr title "packets sent to lower layer, vector(packetBytes)"
vector 161 TARPNetwork.node[19].wlan[0].mac rcvdPkFromLl:vector(packetBytes) ETV
attr interpolationmode none
attr source packetReceivedFromLower
attr title "packets received from lower layer, vector(packetBytes)"
vector 162 TARPNetwork.node[19].wlan[0].mac passedUpPk:vector(packetBytes) ETV
attr interpolationmode none
attr source packetSentToUpper
attr title "packets passed to higher layer, vector(packetBytes)"
vector 163 TARPNetwork.node[19].wlan[0].mac rcvdPkFromHl:vector(packetBytes) ETV
attr interpolationmode none
attr source packetReceivedFromUpper
attr title "packets received from higher layer, vector(packetBytes)"
vector 164 TARPNetwork.node[19].wlan[0].mac.queue packetPushed:vector(packetBytes) ETV
attr interpolationmode none
attr title "packet pushed, vector(packetBytes)"
vector 165 TARPNetwork.node[19].wlan[0].mac.queue queueLength:vector ETV
attr interpolationmode sample-hold
attr source "count(packetPushed) - count(packetPopped) - count(packetRemoved) - count(packetDropped)"
attr title "queue length, vector"
vector 166 TARPNetwork.node[19].wlan[0].mac.queue packetPopped:vector(packetBytes) ETV
attr interpolationmode none
attr title "packet popped, vector(packetBytes)"
vector 167 TARPNetwork.node[19].wlan[0].mac.queue queueingTime:vector ETV
attr interpolationmode none
attr source queueingTime(packetPopped)
attr title "queueing times, vector"
attr unit s
vector 168 TARPNetwork.node[19].wlan[0].mac sentDownPk:vector(packetBytes) ETV
attr interpolationmode none
attr source packetSentToLower
attr title "packets sent to lower layer, vector(packetBytes)"
vector 169 TARPNetwork.node[13].wlan[0].mac rcvdPkFromLl:vector(packetBytes) ETV
attr interpolationmode none
attr source packetReceivedFromLower
attr title "packets received from lower layer, vector(packetBytes)"
vector 170 TARPNetwork.node[13].wlan[0].mac passedUpPk:vector(packetBytes) ETV
attr interpolationmode none
attr source packetSentToUpper
attr title "packets passed to higher layer, vector(packetBytes)"
vector 171 TARPNetwork.node[13].wlan[0].mac rcvdPkFromHl:vector(packetBytes) ETV
attr interpolationmode none
attr source packetReceivedFromUpper
attr title "packets received from higher layer, vector(packetBytes)"
vector 172 TARPNetwork.node[13].wlan[0].mac.queue packetPushed:vector(packetBytes) ETV
attr interpolationmode none
attr title "packet pushed, vector(packetBytes)"
vector 173 TARPNetwork.node[13].wlan[0].mac.queue queueLength:vector ETV
attr interpolationmode sample-hold
attr source "count(packetPushed) - count(packetPopped) - count(packetRemoved) - count(packetDropped)"
attr title "queue length, vector"
vector 174 TARPNetwork.node[13].wlan[0].mac.queue packetPopped:vector(packetBytes) ETV
attr interpolationmode none
attr title "packet popped, vector(packetBytes)"
vector 175 TARPNetwork.node[13].wlan[0].mac.queue queueingTime:vector ETV
attr interpolationmode none
attr source queueingTime(packetPopped)
attr title "queueing times, vector"
attr unit s
vector 176 TARPNetwork.node[13].wlan[0].mac sentDownPk:vector(packetBytes) ETV
attr interpolationmode none
attr source packetSentToLower
attr title "packets sent to lower layer, vector(packetBytes)"
vector 177 TARPNetwork.node[21].wlan[0].mac rcvdPkFromLl:vector(packetBytes) ETV
attr interpolationmode none
attr source packetReceivedFromLower
attr title "packets received from lower layer, vector(packetBytes)"
vector 178 TARPNetwork.node[21].wlan[0].mac passedUpPk:vector(packetBytes) ETV
attr interpolationmode none
attr source packetSentToUpper
attr title "packets passed to higher layer, vector(packetBytes)"
vector 179 TARPNetwork.node[21].wlan[0].mac rcvdPkFromHl:vector(packetBytes) ETV
attr interpolationmode none
attr source packetReceivedFromUpper
attr title "packets received from higher layer, vector(packetBytes)"
vector 180 TARPNetwork.node[21].wlan[0].mac.queue packetPushed:vector(packetBytes) ETV
attr interpolationmode none
attr title "packet pushed, vector(packetBytes)"
vector 181 TARPNetwork.node[21].wlan[0].mac.queue queueLength:vector ETV
attr interpolationmode sample-hold
attr source "count(packetPushed) - count(packetPopped) - count(packetRemoved) - count(packetDropped)"
attr title "queue length, vector"
vector 182 TARPNetwork.node[21].wlan[0].mac.queue packetPopped:vector(packetBytes) ETV
attr interpolationmode none
attr title "packet popped, vector(packetBytes)"
vector 183 TARPNetwork.node[21].wlan[0].mac.queue queueingTime:vector ETV
attr interpolationmode none
attr source queueingTime(packetPopped)
attr title "queueing times, vector"
attr unit s
vector 184 TARPNetwork.node[21].wlan[0].mac sentDownPk:vector(packetBytes) ETV
attr interpolationmode none
attr source packetSentToLower
attr title "packets sent to lower layer, vector(packetBytes)"
vector 185 TARPNetwork.node[5].wlan[0].mac rcvdPkFromLl:vector(packetBytes) ETV
attr interpolationmode none
attr source packetReceivedFromLower
attr title "packets received from lower layer, vector(packetBytes)"
vector 186 TARPNetwork.node[5].wlan[0].mac passedUpPk:vector(packetBytes) ETV
attr interpolationmode none
attr source packetSentToUpper
attr title "packets passed to higher layer, vector(packetBytes)"
vector 187 TARPNetwork.node[5].wlan[0].mac rcvdPkFromHl:vector(packetBytes) ETV
attr interpolationmode none
attr source packetReceivedFromUpper
attr title "packets received from higher layer, vector(packetBytes)"
vector 188 TARPNetwork.node[5].wlan[0].mac.queue packetPushed:vector(packetBytes) ETV
attr interpolationmode none
attr title "packet pushed, vector(packetBytes)"
vector 189 TARPNetwork.node[5].wlan[0].mac.queue queueLength:vector ETV
attr interpolationmode sample-hold
attr source "count(packetPushed) - count(packetPopped) - count(packetRemoved) - count(packetDropped)"
attr title "queue length, vector"
vector 190 TARPNetwork.node[5].wlan[0].mac.queue packetPopped:vector(packetBytes) ETV
attr interpolationmode none
attr title "packet popped, vector(packetBytes)"
vector 191 TARPNetwork.node[5].wlan[0].mac.queue queueingTime:vector ETV
attr interpolationmode none
attr source queueingTime(packetPopped)
attr title "queueing times, vector"
attr unit s
vector 192 TARPNetwork.node[5].wlan[0].mac sentDownPk:vector(packetBytes) ETV
attr interpolationmode none
attr source packetSentToLower
attr title "packets sent to lower layer, vector(packetBytes)"
vector 193 TARPNetwork.node[14].wlan[0].mac rcvdPkFromLl:vector(packetBytes) ETV
attr interpolationmode none
attr source packetReceivedFromLower
attr title "packets received from lower layer, vector(packetBytes)"
vector 194 TARPNetwork.node[14].wlan[0].mac passedUpPk:vector(packetBytes) ETV
attr interpolationmode none
attr source packetSentToUpper
attr title "packets passed to higher layer, vector(packetBytes)"
vector 195 TARPNetwork.node[14].wlan[0].mac rcvdPkFromHl:vector(packetBytes) ETV
attr interpolationmode none
attr source packetReceivedFromUpper
attr title "packets received from higher layer, vector(packetBytes)"
vector 196 TARPNetwork.node[14].wlan[0].mac.queue packetPushed:vector(packetBytes) ETV
attr interpolationmode none
attr title "packet pushed, vector(packetBytes)"
vector 197 TARPNetwork.node[14].wlan[0].mac.queue queueLength:vector ETV
attr interpolationmode sample-hold
attr source "count(packetPushed) - count(packetPopped) - count(packetRemoved) - count(packetDropped)"
attr title "queue length, vector"
vector 198 TARPNetwork.node[14].wlan[0].mac.queue packetPopped:vector(packetBytes) ETV
attr interpolationmode none
attr title "packet popped, vector(packetBytes)"
vector 199 TARPNetwork.node[14].wlan[0].mac.queue queueingTime:vector ETV
attr interpolationmode none
attr source queueingTime(packetPopped)
attr title "queueing times, vector"
attr unit s
vector 200 TARPNetwork.node[14].wlan[0].mac sentDownPk:vector(packetBytes) ETV
attr interpolationmode none
attr source packetSentToLower
attr title "packets sent to lower layer, vector(packetBytes)"
vector 201 TARPNetwork.node[24].wlan[0].mac rcvdPkFromLl:vector(packetBytes) ETV
attr interpolationmode none
attr source packetReceivedFromLower
attr title "packets received from lower layer, vector(packetBytes)"
vector 202 TARPNetwork.node[24].wlan[0].mac passedUpPk:vector(packetBytes) ETV
attr interpolationmode none
attr source packetSentToUpper
attr title "packets passed to higher layer, vector(packetBytes)"
vector 203 TARPNetwork.node[24].wlan[0].mac rcvdPkFromHl:vector(packetBytes) ETV
attr interpolationmode none
attr source packetReceivedFromUpper
attr title "packets received from higher layer, vector(packetBytes)"
vector 204 TARPNetwork.node[24].wlan[0].mac.queue packetPushed:vector(packetBytes) ETV
attr interpolationmode none
attr title "packet pushed, vector(packetBytes)"
vector 205 TARPNetwork.node[24].wlan[0].mac.queue queueLength:vector ETV
attr interpolationmode sample-hold
attr source "count(packetPushed) - count(packetPopped) - count(packetRemoved) - count(packetDropped)"
attr title "queue length, vector"
vector 206 TARPNetwork.node[24].wlan[0].mac.queue packetPopped:vector(packetBytes) ETV
attr interpolationmode none
attr title "packet popped, vector(packetBytes)"
vector 207 TARPNetwork.node[24].wlan[0].mac.queue queueingTime:vector ETV
attr interpolationmode none
attr source queueingTime(packetPopped)
attr title "queueing times, vector"
attr unit s
vector 208 TARPNetwork.node[24].wlan[0].mac sentDownPk:vector(packetBytes) ETV
attr interpolationmode none
attr source packetSentToLower
attr title "packets sent to lower layer, vector(packetBytes)"
vector 209 TARPNetwork.node[1].wlan[0].mac rcvdPkFromLl:vector(packetBytes) ETV
attr interpolationmode none
attr source packetReceivedFromLower
attr title "packets received from lower layer, vector(packetBytes)"
vector 210 TARPNetwork.node[1].wlan[0].mac passedUpPk:vector(packetBytes) ETV
attr interpolationmode none
attr source packetSentToUpper
attr title "packets passed to higher layer, vector(packetBytes)"
vector 211 TARPNetwork.node[1].wlan[0].mac rcvdPkFromHl:vector(packetBytes) ETV
attr interpolationmode none
attr source packetReceivedFromUpper
attr title "packets received from higher layer, vector(packetBytes)"
vector 212 TARPNetwork.node[1].wlan[0].mac.queue packetPushed:vector(packetBytes) ETV
attr interpolationmode none
attr title "packet pushed, vector(packetBytes)"
vector 213 TARPNetwork.node[1].wlan[0].mac.queue queueLength:vector ETV
attr interpolationmode sample-hold
attr source "count(packetPushed) - count(packetPopped) - count(packetRemoved) - count(packetDropped)"
attr title "queue length, vector"
vector 214 TARPNetwork.node[1].wlan[0].mac.queue packetPopped:vector(packetBytes) ETV
attr interpolationmode none
attr title "packet popped, vector(packetBytes)"
vector 215 TARPNetwork.node[1].wlan[0].mac.queue queueingTime:vector ETV
attr interpolationmode none
attr source queueingTime(packetPopped)
attr title "queueing times, vector"
attr unit s
vector 216 TARPNetwork.node[1].wlan[0].mac sentDownPk:vector(packetBytes) ETV
attr interpolationmode none
attr source packetSentToLower
attr title "packets sent to lower layer, vector(packetBytes)"
vector 217 TARPNetwork.node[16].wlan[0].mac rcvdPkFromLl:vector(packetBytes) ETV
attr interpolationmode none
attr source packetReceivedFromLower
attr title "packets received from lower layer, vector(packetBytes)"
vector 218 TARPNetwork.node[16].wlan[0].mac passedUpPk:vector(packetBytes) ETV
attr interpolationmode none
attr source packetSentToUpper
attr title "packets passed to higher layer, vector(packetBytes)"
vector 219 TARPNetwork.node[16].wlan[0].mac rcvdPkFromHl:vector(packetBytes) ETV
attr interpolationmode none
attr source packetReceivedFromUpper
attr title "packets received from higher layer, vector(packetBytes)"
vector 220 TARPNetwork.node[16].wlan[0].mac.queue packetPushed:vector(packetBytes) ETV
attr interpolationmode none
attr title "packet pushed, vector(packetBytes)"
vector 221 TARPNetwork.node[16].wlan[0].mac.queue queueLength:vector ETV
attr interpolationmode sample-hold
attr source "count(packetPushed) - count(packetPopped) - count(packetRemoved) - count(packetDropped)"
attr title "queue length, vector"
vector 222 TARPNetwork.node[16].wlan[0].mac.queue packetPopped:vector(packetBytes) ETV
attr interpolationmode none
attr title "packet popped, vector(packetBytes)"
vector 223 TARPNetwork.node[16].wlan[0].mac.queue queueingTime:vector ETV
attr interpolationmode none
attr source queueingTime(packetPopped)
attr title "queueing times, vector"
attr unit s
vector 224 TARPNetwork.node[16].wlan[0].mac sentDownPk:vector(packetBytes) ETV
attr interpolationmode none
attr source packetSentToLower
attr title "packets sent to lower layer, vector(packetBytes)"
vector 225 TARPNetwork.node[11].wlan[0].mac rcvdPkFromLl:vector(packetBytes) ETV
attr interpolationmode none
attr source packetReceivedFromLower
attr title "packets received from lower layer, vector(packetBytes)"
vector 226 TARPNetwork.node[11].wlan[0].mac passedUpPk:vector(packetBytes) ETV
attr interpolationmode none
attr source packetSentToUpper
attr title "packets passed to higher layer, vector(packetBytes)"
vector 227 TARPNetwork.node[11].wlan[0].mac rcvdPkFromHl:vector(packetBytes) ETV
attr interpolationmode none
attr source packetReceivedFromUpper
attr title "packets received from higher layer, vector(packetBytes)"
vector 228 TARPNetwork.node[11].wlan[0].mac.queue packetPushed:vector(packetBytes) ETV
attr interpolationmode none
attr title "packet pushed, vector(packetBytes)"
vector 229 TARPNetwork.node[11].wlan[0].mac.queue queueLength:vector ETV
attr interpolationmode sample-hold
attr source "count(packetPushed) - count(packetPopped) - count(packetRemoved) - count(packetDropped)"
attr title "queue length, vector"
vector 230 TARPNetwork.node[11].wlan[0].mac.queue packetPopped:vector(packetBytes) ETV
attr interpolationmode none
attr title "packet popped, vector(packetBytes)"
vector 231 TARPNetwork.node[11].wlan[0].mac.queue queueingTime:vector ETV
attr interpolationmode none
attr source queueingTime(packetPopped)
attr title "queueing times, vector"
attr unit s
vector 232 TARPNetwork.node[11].wlan[0].mac sentDownPk:vector(packetBytes) ETV
attr interpolationmode none
attr source packetSentToLower
attr title "packets sent to lower layer, vector(packetBytes)"
vector 233 TARPNetwork.node[29].wlan[0].mac rcvdPkFromLl:vector(packetBytes) ETV
attr interpolationmode none
attr source packetReceivedFromLower
attr title "packets received from lower layer, vector(packetBytes)"
vector 234 TARPNetwork.node[29].wlan[0].mac passedUpPk:vector(packetBytes) ETV
attr interpolationmode none
attr source packetSentToUpper
attr title "packets passed to higher layer, vector(packetBytes)"
vector 235 TARPNetwork.node[29].wlan[0].mac rcvdPkFromHl:vector(packetBytes) ETV
attr interpolationmode none
attr source packetReceivedFromUpper
attr title "packets received from higher layer, vector(packetBytes)"
vector 236 TARPNetwork.node[29].wlan[0].mac.queue packetPushed:vector(packetBytes) ETV
attr interpolationmode none
attr title "packet pushed, vector(packetBytes)"
vector 237 TARPNetwork.node[29].wlan[0].mac.queue queueLength:vector ETV
attr interpolationmode sample-hold
attr source "count(packetPushed) - count(packetPopped) - count(packetRemoved) - count(packetDropped)"
attr title "queue length, vector"
vector 238 TARPNetwork.node[29].wlan[0].mac.queue packetPopped:vector(packetBytes) ETV
attr interpolationmode none
attr title "packet popped, vector(packetBytes)"
vector 239 TARPNetwork.node[29].wlan[0].mac.queue queueingTime:vector ETV
attr interpolationmode none
attr source queueingTime(packetPopped)
attr title "queueing times, vector"
attr unit s
vector 240 TARPNetwork.node[29].wlan[0].mac sentDownPk:vector(packetBytes) ETV
attr interpolationmode none
attr source packetSentToLower
attr title "packets sent to lower layer, vector(packetBytes)"
vector 241 TARPNetwork.node[8].wlan[0].mac rcvdPkFromLl:vector(packetBytes) ETV
attr interpolationmode none
attr source packetReceivedFromLower
attr title "packets received from lower layer, vector(packetBytes)"
vector 242 TARPNetwork.node[8].wlan[0].mac passedUpPk:vector(packetBytes) ETV
attr interpolationmode none
attr source packetSentToUpper
attr title "packets passed to higher layer, vector(packetBytes)"
vector 243 TARPNetwork.node[8].wlan[0].mac rcvdPkFromHl:vector(packetBytes) ETV
attr interpolationmode none
attr source packetReceivedFromUpper
attr title "packets received from higher layer, vector(packetBytes)"
vector 244 TARPNetwork.node[8].wlan[0].mac.queue packetPushed:vector(packetBytes) ETV
attr interpolationmode none
attr title "packet pushed, vector(packetBytes)"
vector 245 TARPNetwork.node[8].wlan[0].mac.queue queueLength:vector ETV
attr interpolationmode sample-hold
attr source "count(packetPushed) - count(packetPopped) - count(packetRemoved) - count(packetDropped)"
attr title "queue length, vector"
vector 246 TARPNetwork.node[8].wlan[0].mac.queue packetPopped:vector(packetBytes) ETV
attr interpolationmode none
attr title "packet popped, vector(packetBytes)"
vector 247 TARPNetwork.node[8].wlan[0].mac.queue queueingTime:vector ETV
attr interpolationmode none
attr source queueingTime(packetPopped)
attr title "queueing times, vector"
attr unit s
vector 248 TARPNetwork.node[8].wlan[0].mac sentDownPk:vector(packetBytes) ETV
attr interpolationmode none
attr source packetSentToLower
attr title "packets sent to lower layer, vector(packetBytes)"
vector 249 TARPNetwork.node[7].wlan[0].mac rcvdPkFromLl:vector(packetBytes) ETV
attr interpolationmode none
attr source packetReceivedFromLower
attr title "packets received from lower layer, vector(packetBytes)"
vector 250 TARPNetwork.node[7].wlan[0].mac passedUpPk:vector(packetBytes) ETV
attr interpolationmode none
attr source packetSentToUpper
attr title "packets passed to higher layer, vector(packetBytes)"
vector 251 TARPNetwork.node[7].wlan[0].mac rcvdPkFromHl:vector(packetBytes) ETV
attr interpolationmode none
attr source packetReceivedFromUpper
attr title "packets received from higher layer, vector(packetBytes)"
vector 252 TARPNetwork.node[7].wlan[0].mac.queue packetPushed:vector(packetBytes) ETV
attr interpolationmode none
attr title "packet pushed, vector(packetBytes)"
vector 253 TARPNetwork.node[7].wlan[0].mac.queue queueLength:vector ETV
attr interpolationmode sample-hold
attr source "count(packetPushed) - count(packetPopped) - count(packetRemoved) - count(packetDropped)"
attr title "queue length, vector"
vector 254 TARPNetwork.node[7].wlan[0].mac.queue packetPopped:vector(packetBytes) ETV
attr interpolationmode none
attr title "packet popped, vector(packetBytes)"
vector 255 TARPNetwork.node[7].wlan[0].mac.queue queueingTime:vector ETV
attr interpolationmode none
attr source queueingTime(packetPopped)
attr title "queueing times, vector"
attr unit s
vector 256 TARPNetwork.node[7].wlan[0].mac sentDownPk:vector(packetBytes) ETV
attr interpolationmode none
attr source packetSentToLower
attr title "packets sent to lower layer, vector(packetBytes)"
vector 257 TARPNetwork.node[9].wlan[0].mac rcvdPkFromLl:vector(packetBytes) ETV
attr interpolationmode none
attr source packetReceivedFromLower
attr title "packets received from lower layer, vector(packetBytes)"
vector 258 TARPNetwork.node[9].wlan[0].mac passedUpPk:vector(packetBytes) ETV
attr interpolationmode none
attr source packetSentToUpper
attr title "packets passed to higher layer, vector(packetBytes)"
vector 259 TARPNetwork.node[9].wlan[0].mac rcvdPkFromHl:vector(packetBytes) ETV
attr interpolationmode none
attr source packetReceivedFromUpper
attr title "packets received from higher layer, vector(packetBytes)"
vector 260 TARPNetwork.node[9].wlan[0].mac.queue packetPushed:vector(packetBytes) ETV
attr interpolationmode none
attr title "packet pushed, vector(packetBytes)"
vector 261 TARPNetwork.node[9].wlan[0].mac.queue queueLength:vector ETV
attr interpolationmode sample-hold
attr source "count(packetPushed) - count(packetPopped) - count(packetRemoved) - count(packetDropped)"
attr title "queue length, vector"
vector 262 TARPNetwork.node[9].wlan[0].mac.queue packetPopped:vector(packetBytes) ETV
attr interpolationmode none
attr title "packet popped, vector(packetBytes)"
vector 263 TARPNetwork.node[9].wlan[0].mac.queue queueingTime:vector ETV
attr interpolationmode none
attr source queueingTime(packetPopped)
attr title "queueing times, vector"
attr unit s
vector 264 TARPNetwork.node[9].wlan[0].mac sentDownPk:vector(packetBytes) ETV
attr interpolationmode none
attr source packetSentToLower
attr title "packets sent to lower layer, vector(packetBytes)"
vector 265 TARPNetwork.node[6].wlan[0].mac rcvdPkFromLl:vector(packetBytes) ETV
attr interpolationmode none
attr source packetReceivedFromLower
attr title "packets received from lower layer, vector(packetBytes)"
vector 266 TARPNetwork.node[6].wlan[0].mac passedUpPk:vector(packetBytes) ETV
attr interpolationmode none
attr source packetSentToUpper
attr title "packets passed to higher layer, vector(packetBytes)"
vector 267 TARPNetwork.node[6].wlan[0].mac rcvdPkFromHl:vector(packetBytes) ETV
attr interpolationmode none
attr source packetReceivedFromUpper
attr title "packets received from higher layer, vector(packetBytes)"
vector 268 TARPNetwork.node[6].wlan[0].mac.queue packetPushed:vector(packetBytes) ETV
attr interpolationmode none
attr title "packet pushed, vector(packetBytes)"
vector 269 TARPNetwork.node[6].wlan[0].mac.queue queueLength:vector ETV
attr interpolationmode sample-hold
attr source "count(packetPushed) - count(packetPopped) - count(packetRemoved) - count(packetDropped)"
attr title "queue length, vector"
vector 270 TARPNetwork.node[6].wlan[0].mac.queue packetPopped:vector(packetBytes) ETV
attr interpolationmode none
attr title "packet popped, vector(packetBytes)"
vector 271 TARPNetwork.node[6].wlan[0].mac.queue queueingTime:vector ETV
attr interpolationmode none
attr source queueingTime(packetPopped)
attr title "queueing times, vector"
attr unit s
vector 272 TARPNetwork.node[6].wlan[0].mac sentDownPk:vector(packetBytes) ETV
attr interpolationmode none
attr source packetSentToLower
attr title "packets sent to lower layer, vector(packetBytes)"
vector 273 TARPNetwork.node[12].wlan[0].mac rcvdPkFromLl:vector(packetBytes) ETV
attr interpolationmode none
attr source packetReceivedFromLower
attr title "packets received from lower layer, vector(packetBytes)"
vector 274 TARPNetwork.node[12].wlan[0].mac passedUpPk:vector(packetBytes) ETV
attr interpolationmode none
attr source packetSentToUpper
attr title "packets passed to higher layer, vector(packetBytes)"
vector 275 TARPNetwork.node[12].wlan[0].mac rcvdPkFromHl:vector(packetBytes) ETV
attr interpolationmode none
attr source packetReceivedFromUpper
attr title "packets received from higher layer, vector(packetBytes)"
vector 276 TARPNetwork.node[12].wlan[0].mac.queue packetPushed:vector(packetBytes) ETV
attr interpolationmode none
attr title "packet pushed, vector(packetBytes)"
vector 277 TARPNetwork.node[12].wlan[0].mac.queue queueLength:vector ETV
attr interpolationmode sample-hold
attr source "count(packetPushed) - count(packetPopped) - count(packetRemoved) - count(packetDropped)"
attr title "queue length, vector"
vector 278 TARPNetwork.node[12].wlan[0].mac.queue packetPopped:vector(packetBytes) ETV
attr interpolationmode none
attr title "packet popped, vector(packetBytes)"
vector 279 TARPNetwork.node[12].wlan[0].mac.queue queueingTime:vector ETV
attr interpolationmode none
attr source queueingTime(packetPopped)
attr title "queueing times, vector"
attr unit s
vector 280 TARPNetwork.node[12].wlan[0].mac sentDownPk:vector(packetBytes) ETV
attr interpolationmode none
attr source packetSentToLower
attr title "packets sent to lower layer, vector(packetBytes)"
vector 281 TARPNetwork.node[20].wlan[0].mac rcvdPkFromLl:vector(packetBytes) ETV
attr interpolationmode none
attr source packetReceivedFromLower
attr title "packets received from lower layer, vector(packetBytes)"
vector 282 TARPNetwork.node[20].wlan[0].mac passedUpPk:vector(packetBytes) ETV
attr interpolationmode none
attr source packetSentToUpper
attr title "packets passed to higher layer, vector(packetBytes)"
vector 283 TARPNetwork.node[20].wlan[0].mac rcvdPkFromHl:vector(packetBytes) ETV
attr interpolationmode none
attr source packetReceivedFromUpper
attr title "packets received from higher layer, vector(packetBytes)"
vector 284 TARPNetwork.node[20].wlan[0].mac.queue packetPushed:vector(packetBytes) ETV
attr interpolationmode none
attr title "packet pushed, vector(packetBytes)"
vector 285 TARPNetwork.node[20].wlan[0].mac.queue queueLength:vector ETV
attr interpolationmode sample-hold
attr source "count(packetPushed) - count(packetPopped) - count(packetRemoved) - count(packetDropped)"
attr title "queue length, vector"
vector 286 TARPNetwork.node[20].wlan[0].mac.queue packetPopped:vector(packetBytes) ETV
attr interpolationmode none
attr title "packet popped, vector(packetBytes)"
vector 287 TARPNetwork.node[20].wlan[0].mac.queue queueingTime:vector ETV
attr interpolationmode none
attr source queueingTime(packetPopped)
attr title "queueing times, vector"
attr unit s
vector 288 TARPNetwork.node[20].wlan[0].mac sentDownPk:vector(packetBytes) ETV
attr interpolationmode none
attr source packetSentToLower
attr title "packets sent to lower layer, vector(packetBytes)"
vector 289 TARPNetwork.node[23].wlan[0].mac rcvdPkFromLl:vector(packetBytes) ETV
attr interpolationmode none
attr source packetReceivedFromLower
attr title "packets received from lower layer, vector(packetBytes)"
vector 290 TARPNetwork.node[23].wlan[0].mac passedUpPk:vector(packetBytes) ETV
attr interpolationmode none
attr source packetSentToUpper
attr title "packets passed to higher layer, vector(packetBytes)"
vector 291 TARPNetwork.node[23].wlan[0].mac rcvdPkFromHl:vector(packetBytes) ETV
attr interpolationmode none
attr source packetReceivedFromUpper
attr title "packets received from higher layer, vector(packetBytes)"
vector 292 TARPNetwork.node[23].wlan[0].mac.queue packetPushed:vector(packetBytes) ETV
attr interpolationmode none
attr title "packet pushed, vector(packetBytes)"
vector 293 TARPNetwork.node[23].wlan[0].mac.queue queueLength:vector ETV
attr interpolationmode sample-hold
attr source "count(packetPushed) - count(packetPopped) - count(packetRemoved) - count(packetDropped)"
attr title "queue length, vector"
vector 294 TARPNetwork.node[23].wlan[0].mac.queue packetPopped:vector(packetBytes) ETV
attr interpolationmode none
attr title "packet popped, vector(packetBytes)"
vector 295 TARPNetwork.node[23].wlan[0].mac.queue queueingTime:vector ETV
attr interpolationmode none
attr source queueingTime(packetPopped)
attr title "queueing times, vector"
attr unit s
vector 296 TARPNetwork.node[23].wlan[0].mac sentDownPk:vector(packetBytes) ETV
attr interpolationmode none
attr source packetSentToLower
attr title "packets sent to lower layer, vector(packetBytes)"
vector 297 TARPNetwork.node[15].wlan[0].mac rcvdPkFromLl:vector(packetBytes) ETV
attr interpolationmode none
attr source packetReceivedFromLower
attr title "packets received from lower layer, vector(packetBytes)"
vector 298 TARPNetwork.node[15].wlan[0].mac passedUpPk:vector(packetBytes) ETV
attr interpolationmode none
attr source packetSentToUpper
attr title "packets passed to higher layer, vector(packetBytes)"
vector 299 TARPNetwork.node[15].wlan[0].mac rcvdPkFromHl:vector(packetBytes) ETV
attr interpolationmode none
attr source packetReceivedFromUpper
attr title "packets received from higher layer, vector(packetBytes)"
vector 300 TARPNetwork.node[15].wlan[0].mac.queue packetPushed:vector(packetBytes) ETV
attr interpolationmode none
attr title "packet pushed, vector(packetBytes)"
vector 301 TARPNetwork.node[15].wlan[0].mac.queue queueLength:vector ETV
attr interpolationmode sample-hold
attr source "count(packetPushed) - count(packetPopped) - count(packetRemoved) - count(packetDropped)"
attr title "queue length, vector"
vector 302 TARPNetwork.node[15].wlan[0].mac.queue packetPopped:vector(packetBytes) ETV
attr interpolationmode none
attr title "packet popped, vector(packetBytes)"
vector 303 TARPNetwork.node[15].wlan[0].mac.queue queueingTime:vector ETV
attr interpolationmode none
attr source queueingTime(packetPopped)
attr title "queueing times, vector"
attr unit s
vector 304 TARPNetwork.node[15].wlan[0].mac sentDownPk:vector(packetBytes) ETV
attr interpolationmode none
attr source packetSentToLower
attr title "packets sent to lower layer, vector(packetBytes)"
vector 305 TARPNetwork.node[25].wlan[0].mac rcvdPkFromLl:vector(packetBytes) ETV
attr interpolationmode none
attr source packetReceivedFromLower
attr title "packets received from lower layer, vector(packetBytes)"
vector 306 TARPNetwork.node[25].wlan[0].mac passedUpPk:vector(packetBytes) ETV
attr interpolationmode none
attr source packetSentToUpper
attr title "packets passed to higher layer, vector(packetBytes)"
vector 307 TARPNetwork.node[25].wlan[0].mac rcvdPkFromHl:vector(packetBytes) ETV
attr interpolationmode none
attr source packetReceivedFromUpper
attr title "packets received from higher layer, vector(packetBytes)"
vector 308 TARPNetwork.node[25].wlan[0].mac.queue packetPushed:vector(packetBytes) ETV
attr interpolationmode none
attr title "packet pushed, vector(packetBytes)"
vector 309 TARPNetwork.node[25].wlan[0].mac.queue queueLength:vector ETV
attr interpolationmode sample-hold
attr source "count(packetPushed) - count(packetPopped) - count(packetRemoved) - count(packetDropped)"
attr title "queue length, vector"
vector 310 TARPNetwork.node[25].wlan[0].mac.queue packetPopped:vector(packetBytes) ETV
attr interpolationmode none
attr title "packet popped, vector(packetBytes)"
vector 311 TARPNetwork.node[25].wlan[0].mac.queue queueingTime:vector ETV
attr interpolationmode none
attr source queueingTime(packetPopped)
attr title "queueing times, vector"
attr unit s
vector 312 TARPNetwork.node[25].wlan[0].mac sentDownPk:vector(packetBytes) ETV
attr interpolationmode none
attr source packetSentToLower
attr title "packets sent to lower layer, vector(packetBytes)"
vector 313 TARPNetwork.node[22].wlan[0].mac rcvdPkFromLl:vector(packetBytes) ETV
attr interpolationmode none
attr source packetReceivedFromLower
attr title "packets received from lower layer, vector(packetBytes)"
vector 314 TARPNetwork.node[22].wlan[0].mac passedUpPk:vector(packetBytes) ETV
attr interpolationmode none
attr source packetSentToUpper
attr title "packets passed to higher layer, vector(packetBytes)"
vector 315 TARPNetwork.node[22].wlan[0].mac rcvdPkFromHl:vector(packetBytes) ETV
attr interpolationmode none
attr source packetReceivedFromUpper
attr title "packets received from higher layer, vector(packetBytes)"
vector 316 TARPNetwork.node[22].wlan[0].mac.queue packetPushed:vector(packetBytes) ETV
attr interpolationmode none
attr title "packet pushed, vector(packetBytes)"
vector 317 TARPNetwork.node[22].wlan[0].mac.queue queueLength:vector ETV
attr interpolationmode sample-hold
attr source "count(packetPushed) - count(packetPopped) - count(packetRemoved) - count(packetDropped)"
attr title "queue length, vector"
vector 318 TARPNetwork.node[22].wlan[0].mac.queue packetPopped:vector(packetBytes) ETV
attr interpolationmode none
attr title "packet popped, vector(packetBytes)"
vector 319 TARPNetwork.node[22].wlan[0].mac.queue queueingTime:vector ETV
attr interpolationmode none
attr source queueingTime(packetPopped)
attr title "queueing times, vector"
attr unit s
vector 320 TARPNetwork.node[22].wlan[0].mac sentDownPk:vector(packetBytes) ETV
attr interpolationmode none
attr source packetSentToLower
attr title "packets sent to lower layer, vector(packetBytes)"
vector 321 TARPNetwork.nodeB.wlan[0].mac rcvdPkFromLl:vector(packetBytes) ETV
attr interpolationmode none
attr source packetReceivedFromLower
attr title "packets received from lower layer, vector(packetBytes)"
vector 322 TARPNetwork.nodeB.wlan[0].mac passedUpPk:vector(packetBytes) ETV
attr interpolationmode none
attr source packetSentToUpper
attr title "packets passed to higher layer, vector(packetBytes)"
vector 323 TARPNetwork.nodeB.wlan[0].mac rcvdPkFromHl:vector(packetBytes) ETV
attr interpolationmode none
attr source packetReceivedFromUpper
attr title "packets received from higher layer, vector(packetBytes)"
vector 324 TARPNetwork.nodeB.wlan[0].mac.queue packetPushed:vector(packetBytes) ETV
attr interpolationmode none
attr title "packet pushed, vector(packetBytes)"
vector 325 TARPNetwork.nodeB.wlan[0].mac.queue queueLength:vector ETV
attr interpolationmode sample-hold
attr source "count(packetPushed) - count(packetPopped) - count(packetRemoved) - count(packetDropped)"
attr title "queue length, vector"
vector 326 TARPNetwork.nodeB.wlan[0].mac.queue packetPopped:vector(packetBytes) ETV
attr interpolationmode none
attr title "packet popped, vector(packetBytes)"
vector 327 TARPNetwork.nodeB.wlan[0].mac.queue queueingTime:vector ETV
attr interpolationmode none
attr source queueingTime(packetPopped)
attr title "queueing times, vector"
attr unit s
vector 328 TARPNetwork.nodeB.wlan[0].mac sentDownPk:vector(packetBytes) ETV
attr interpolationmode none
attr source packetSentToLower
attr title "packets sent to lower layer, vector(packetBytes)"
vector 329 TARPNetwork.node[18].wlan[0].mac rcvdPkFromLl:vector(packetBytes) ETV
attr interpolationmode none
attr source packetReceivedFromLower
attr title "packets received from lower layer, vector(packetBytes)"
vector 330 TARPNetwork.node[18].wlan[0].mac passedUpPk:vector(packetBytes) ETV
attr interpolationmode none
attr source packetSentToUpper
attr title "packets passed to higher layer, vector(packetBytes)"
vector 331 TARPNetwork.node[18].wlan[0].mac rcvdPkFromHl:vector(packetBytes) ETV
attr interpolationmode none
attr source packetReceivedFromUpper
attr title "packets received from higher layer, vector(packetBytes)"
vector 332 TARPNetwork.node[18].wlan[0].mac.queue packetPushed:vector(packetBytes) ETV
attr interpolationmode none
attr title "packet pushed, vector(packetBytes)"
vector 333 TARPNetwork.node[18].wlan[0].mac.queue queueLength:vector ETV
attr interpolationmode sample-hold
attr source "count(packetPushed) - count(packetPopped) - count(packetRemoved) - count(packetDropped)"
attr title "queue length, vector"
vector 334 TARPNetwork.node[18].wlan[0].mac.queue packetPopped:vector(packetBytes) ETV
attr interpolationmode none
attr title "packet popped, vector(packetBytes)"
vector 335 TARPNetwork.node[18].wlan[0].mac.queue queueingTime:vector ETV
attr interpolationmode none
attr source queueingTime(packetPopped)
attr title "queueing times, vector"
attr unit s
vector 336 TARPNetwork.node[18].wlan[0].mac sentDownPk:vector(packetBytes) ETV
attr interpolationmode none
attr source packetSentToLower
attr title "packets sent to lower layer, vector(packetBytes)"
vector 337 TARPNetwork.nodeA.app[0] pingRxSeq:vector ETV
attr interpolationmode none
attr title "ping rx seq, vector"
vector 338 TARPNetwork.nodeA.app[0] rtt:vector ETV
attr interpolationmode none
attr title "ping round-trip time, vector"
attr unit s
vector 339 TARPNetwork.node[2].wlan[0].mac rcvdPkFromLl:vector(packetBytes) ETV
attr interpolationmode none
attr source packetReceivedFromLower
attr title "packets received from lower layer, vector(packetBytes)"
vector 340 TARPNetwork.node[2].wlan[0].mac passedUpPk:vector(packetBytes) ETV
attr interpolationmode none
attr source packetSentToUpper
attr title "packets passed to higher layer, vector(packetBytes)"
vector 341 TARPNetwork.node[2].wlan[0].mac rcvdPkFromHl:vector(packetBytes) ETV
attr interpolationmode none
attr source packetReceivedFromUpper
attr title "packets received from higher layer, vector(packetBytes)"
vector 342 TARPNetwork.node[2].wlan[0].mac.queue packetPushed:vector(packetBytes) ETV
attr interpolationmode none
attr title "packet pushed, vector(packetBytes)"
vector 343 TARPNetwork.node[2].wlan[0].mac.queue queueLength:vector ETV
attr interpolationmode sample-hold
attr source "count(packetPushed) - count(packetPopped) - count(packetRemoved) - count(packetDropped)"
attr title "queue length, vector"
vector 344 TARPNetwork.node[2].wlan[0].mac.queue packetPopped:vector(packetBytes) ETV
attr interpolationmode none
attr title "packet popped, vector(packetBytes)"
vector 345 TARPNetwork.node[2].wlan[0].mac.queue queueingTime:vector ETV
attr interpolationmode none
attr source queueingTime(packetPopped)
attr title "queueing times, vector"
attr unit s
vector 346 TARPNetwork.node[2].wlan[0].mac sentDownPk:vector(packetBytes) ETV
attr interpolationmode none
attr source packetSentToLower
attr title "packets sent to lower layer, vector(packetBytes)"
vector 347 TARPNetwork.node[3].wlan[0].mac rcvdPkFromLl:vector(packetBytes) ETV
attr interpolationmode none
attr source packetReceivedFromLower
attr title "packets received from lower layer, vector(packetBytes)"
vector 348 TARPNetwork.node[3].wlan[0].mac passedUpPk:vector(packetBytes) ETV
attr interpolationmode none
attr source packetSentToUpper
attr title "packets passed to higher layer, vector(packetBytes)"
vector 349 TARPNetwork.node[3].wlan[0].mac rcvdPkFromHl:vector(packetBytes) ETV
attr interpolationmode none
attr source packetReceivedFromUpper
attr title "packets received from higher layer, vector(packetBytes)"
vector 350 TARPNetwork.node[3].wlan[0].mac.queue packetPushed:vector(packetBytes) ETV
attr interpolationmode none
attr title "packet pushed, vector(packetBytes)"
vector 351 TARPNetwork.node[3].wlan[0].mac.queue queueLength:vector ETV
attr interpolationmode sample-hold
attr source "count(packetPushed) - count(packetPopped) - count(packetRemoved) - count(packetDropped)"
attr title "queue length, vector"
vector 352 TARPNetwork.node[3].wlan[0].mac.queue packetPopped:vector(packetBytes) ETV
attr interpolationmode none
attr title "packet popped, vector(packetBytes)"
vector 353 TARPNetwork.node[3].wlan[0].mac.queue queueingTime:vector ETV
attr interpolationmode none
attr source queueingTime(packetPopped)
attr title "queueing times, vector"
attr unit s
vector 354 TARPNetwork.node[3].wlan[0].mac sentDownPk:vector(packetBytes) ETV
attr interpolationmode none
attr source packetSentToLower
attr title "packets sent to lower layer, vector(packetBytes)"
vector 355 TARPNetwork.nodeA.app[0] numLost:vector ETV
attr interpolationmode none
attr title "pings lost, vector"
0	0	0	0
0	0	0	0
0	0	0	4
1	0	0	0
1	0	0	0
1	0	0	4
2	0	0	0
2	0	0	0
2	0	0	4
3	0	0	0
3	0	0	0
3	0	0	4
4	0	0	0
4	0	0	0
4	0	0	4
5	0	0	0
5	0	0	0
5	0	0	4
6	0	0	0
6	0	0	0
6	0	0	4
7	0	0	0
7	0	0	0
7	0	0	4
8	0	0	0
8	0	0	0
8	0	0	4
9	0	0	0
9	0	0	0
9	0	0	4
10	0	0	0
10	0	0	0
10	0	0	4
11	0	0	0
11	0	0	0
11	0	0	4
12	0	0	0
12	0	0	0
12	0	0	4
13	0	0	0
13	0	0	0
13	0	0	4
14	0	0	0
14	0	0	0
14	0	0	4
15	0	0	0
15	0	0	0
15	0	0	4
16	0	0	0
16	0	0	0
16	0	0	4
17	0	0	0
17	0	0	0
17	0	0	4
18	0	0	0
18	0	0	0
18	0	0	4
19	0	0	0
19	0	0	0
19	0	0	4
20	0	0	0
20	0	0	0
20	0	0	4
21	0	0	0
21	0	0	0
21	0	0	4
22	0	0	0
22	0	0	0
22	0	0	4
23	0	0	0
23	0	0	0
23	0	0	4
24	0	0	0
24	0	0	0
24	0	0	4
25	0	0	0
25	0	0	0
25	0	0	4
26	0	0	0
26	0	0	0
26	0	0	4
27	0	0	0
27	0	0	0
27	0	0	4
28	0	0	0
28	0	0	0
28	0	0	4
29	0	0	0
29	0	0	0
29	0	0	4
30	0	0	0
30	0	0	0
30	0	0	4
31	0	0	0
31	0	0	0
31	0	0	4
32	0	0	1
32	306	1.000000113216	3
32	338	1.000416113216	1
32	365	1.000416386696	3
32	526	1.000832386696	2
32	529	1.000832425021	1
32	3976	2.000000117435	3
32	4008	2.000416117435	1
32	4034	2.000416379926	3
32	4195	2.000832379926	2
32	4204	2.000832444274	1
32	7646	3.000000121874	3
32	7678	3.000416121874	1
32	7704	3.000416373171	3
32	7865	3.000832373171	2
32	7879	3.000832463596	1
32	11401	3.00666039439	3
32	11541	3.00707639439	2
32	11544	3.007076421702	1
32	11942	4.00000012651	3
32	11974	4.00041612651	1
32	11999	4.000416366433	3
32	12160	4.000832366433	2
32	12177	4.00083248298	1
32	15585	4.006660375396	3
32	15701	4.007076375396	2
32	15707	4.007076409277	1
32	16104	5.000000131321	3
32	16140	5.000416131321	1
32	16159	5.000416359715	3
32	16321	5.000832359715	2
32	16339	5.000832502417	1
32	19783	5.007076264322	3
32	19926	5.007492264322	2
32	19932	5.00749230467	1
32	20331	6.000000134388	3
32	20367	6.000416134388	1
32	20386	6.000416351829	3
32	20548	6.000832351829	2
32	20566	6.000832520906	1
32	23716	7.000000137583	3
32	23752	7.000416137583	1
32	23771	7.000416343875	3
32	23933	7.000832343875	2
32	23954	7.000832539399	1
32	27091	8.00000014102	3
32	27127	8.00041614102	1
32	27146	8.000416335934	3
32	27308	8.000832335934	1
32	30474	9.000000144683	3
32	30510	9.000416144683	1
32	30523	9.000416328007	3
32	30687	9.000832328007	1
32	34512	10.000000148555	3
32	34549	10.000416148555	1
32	34562	10.000416320093	3
32	34726	10.000832320093	2
32	34770	10.000832662163	1
32	37761	10.00582798906	3
32	38015	10.00624398906	1
32	38549	11.000000148475	3
32	38586	11.000416148475	1
32	38599	11.000416309538	3
32	38762	11.000832309538	2
32	38809	11.000832653047	1
32	41446	11.0058279521	3
32	41557	11.0062439521	1
32	42081	12.000000147377	3
32	42118	12.000416147377	1
32	42131	12.000416298314	3
32	42294	12.000832298314	2
32	42340	12.00083264338	1
32	44976	12.005827917352	3
32	45084	12.006243917352	1
32	45615	13.000000146575	3
32	45652	13.000416146575	1
32	45664	13.000416287643	3
32	45827	13.000832287643	2
32	45873	13.000832633977	1
32	45896	13.000832786416	3
32	46131	13.001248786416	1
32	48582	13.005827884641	3
32	48691	13.006243884641	1
32	48710	13.006244037101	3
32	48831	13.006660037101	1
32	49227	14.000000146074	3
32	49265	14.000416146074	1
32	49276	14.0004162776	3
32	49439	14.0008322776	2
32	49484	14.000832624853	1
32	49507	14.000832781336	3
32	49738	14.001248781336	1
32	51988	14.005827854009	3
32	52097	14.006243854009	1
32	52116	14.006244010514	3
32	52235	14.006660010514	1
32	52639	15.000000145877	3
32	52677	15.000416145877	1
32	52688	15.00041626827	3
32	52851	15.00083226827	2
32	52895	15.000832616021	1
32	52916	15.000832761617	3
32	53149	15.001248761617	1
32	55534	15.005827825272	3
32	55642	15.006243825272	1
32	55660	15.006243985989	3
32	55781	15.006659985989	1
32	56186	16.000000148909	3
32	56223	16.000416148909	1
32	56228	16.00041626058	3
32	56393	16.00083226058	2
32	56441	16.000832620732	1
32	56460	16.000832738813	3
32	56690	16.001248738813	1
32	58733	17.00000015298	3
32	58770	17.00041615298	1
32	58775	17.000416253731	3
32	58975	17.000832253731	2
32	59030	17.000832626381	1
32	59043	17.000832716527	3
32	59295	17.001248716527	1
32	61283	18.000000157233	3
32	61320	18.000416157233	1
32	61325	18.000416247357	3
32	61525	18.000832247357	2
32	61581	18.000832632285	1
32	61594	18.00083269443	3
32	61881	18.00124869443	1
32	64222	18.005828075689	3
32	64325	18.006244075689	1
32	64340	18.006244205635	3
32	64431	18.006660205635	1
32	64839	19.000000161653	3
32	64876	19.000416161653	1
32	64881	19.000416241566	3
32	65081	19.000832241566	2
32	65139	19.000832638436	1
32	65150	19.000832672507	3
32	65437	19.001248672507	1
32	67777	19.005828041931	3
32	67881	19.006244041931	1
32	67896	19.006244162435	3
32	67987	19.006660162435	1
32	68406	20.000000166227	3
32	68443	20.000416166227	1
32	68448	20.000416236503	3
32	68613	20.000832236503	1
32	68668	20.00083265074	3
32	68899	20.00124865074	2
32	68934	20.001248782934	1
32	71349	20.006244147698	3
32	71455	20.006660147698	1
32	71463	20.006660259228	3
32	71555	20.007076259228	1
32	71977	21.000000170924	3
32	72014	21.000416170924	1
32	72019	21.000416230432	3
32	72184	21.000832230432	1
32	72235	21.000832628995	3
32	72470	21.001248628995	2
32	72498	21.001248790817	1
32	74284	21.006244121307	3
32	74391	21.006660121307	1
32	74399	21.006660220374	3
32	74491	21.007076220374	1
32	74897	22.000000175746	3
32	74934	22.000416175746	1
32	74939	22.000416224559	3
32	75104	22.000832224559	1
32	75154	22.00083260739	3
32	75390	22.00124860739	2
32	75418	22.001248798828	1
32	77204	22.006244097087	3
32	77311	22.006660097087	1
32	77319	22.006660184623	3
32	77411	22.007076184623	1
32	77818	23.00000018069	3
32	77855	23.00041618069	1
32	77860	23.000416219508	3
32	78025	23.000832219508	1
32	78064	23.000832585933	3
32	78307	23.001248585933	2
32	78339	23.001248806987	1
32	80124	23.00624406862	3
32	80232	23.00666006862	1
32	80240	23.006660145527	3
32	80332	23.007076145527	1
32	80741	24.000000185744	3
32	80778	24.000416185744	1
32	80783	24.000416215641	3
32	80983	24.000832215641	2
32	81018	24.000832520761	1
32	81065	24.000832815281	3
32	81283	24.001248815281	1
32	82031	25.000000190901	3
32	82068	25.000416190901	1
32	82073	25.000416213355	3
32	82273	25.000832213355	2
32	82303	25.000832501625	1
32	82355	25.000832823704	3
32	82573	25.001248823704	1
32	83324	26.000000194063	3
32	83361	26.000416194063	1
32	83366	26.000416211535	3
32	83566	26.000832211535	2
32	83596	26.000832482175	1
32	83650	26.000832825015	3
32	83867	26.001248825015	1
32	85761	26.005827842353	3
32	85870	26.006243842353	1
32	85875	26.006243892372	3
32	85966	26.006659892372	1
32	85994	26.006660213952	3
32	86077	26.007076213952	1
32	86595	27.000000197135	3
32	86632	27.000416197135	1
32	86637	27.000416211465	3
32	86837	27.000832211465	2
32	86866	27.000832462718	1
32	86921	27.000832825529	3
32	87139	27.001248825529	1
32	88992	27.005827767497	3
32	89112	27.006243767497	1
32	89117	27.00624381026	3
32	89235	27.00665981026	1
32	89263	27.00666013332	3
32	89346	27.00707613332	1
32	89794	28.00000020038	3
32	89831	28.00041620038	1
32	89836	28.000416212754	3
32	90036	28.000832212754	2
32	90064	28.000832443276	1
32	90121	28.000832826238	3
32	90338	28.001248826238	1
32	92187	28.005827736392	3
32	92307	28.006243736392	1
32	92314	28.006243772625	3
32	92432	28.006659772625	1
32	92460	28.006660096831	3
32	92543	28.007076096831	1
32	92992	29.00000020379	3
32	93029	29.00041620379	1
32	93034	29.000416215036	3
32	93199	29.000832215036	2
32	93226	29.000832423849	1
32	93285	29.000832827134	3
32	93508	29.001248827134	1
32	95383	29.005827709602	3
32	95503	29.006243709602	1
32	95510	29.006243739979	3
32	95628	29.006659739979	1
32	95656	29.006660065063	3
32	95739	29.007076065063	1
32	96195	30.000000207357	3
32	96232	30.000416207357	1
32	96237	30.000416218059	3
32	96402	30.000832218059	2
32	96427	30.000832404439	1
32	96488	30.000832828211	3
32	96711	30.001248828211	1
32	98584	30.005827684028	3
32	98705	30.006243684028	1
32	98711	30.006243709169	3
32	98830	30.006659709169	1
32	98857	30.006660034939	3
32	98941	30.007076034939	1
32	99396	31.000000206561	3
32	99433	31.000416206561	1
32	99438	31.000416217267	3
32	99603	31.000832217267	2
32	99623	31.000832387629	1
32	99689	31.000832826143	3
32	99914	31.001248826143	1
32	101787	31.005827667511	3
32	101908	31.006243667511	1
32	101914	31.006243689783	3
32	102033	31.006659689783	1
32	102060	31.006660005678	3
32	102144	31.007076005678	1
32	102590	32.000000205881	3
32	102627	32.000416205881	1
32	102632	32.000416216987	3
32	102797	32.000832216987	2
32	102812	32.000832370936	1
32	102883	32.000832824751	3
32	103108	32.001248824751	1
32	104916	32.005827655118	3
32	105037	32.006243655118	1
32	105042	32.00624367507	3
32	105162	32.00665967507	1
32	105187	32.006659981166	3
32	105273	32.007075981166	1
32	105720	33.000000205416	3
32	105757	33.000416205416	1
32	105762	33.00041621732	3
32	105927	33.00083221732	2
32	105939	33.00083235433	1
32	106014	33.000832823762	3
32	106239	33.001248823762	1
32	108112	33.005827645652	3
32	108234	33.006243645652	1
32	108239	33.006243663728	3
32	108359	33.006659663728	1
32	108383	33.00665996043	3
32	108470	33.00707596043	1
32	108916	34.000000205166	3
32	108953	34.000416205166	1
32	108958	34.000416218261	3
32	109123	34.000832218261	2
32	109132	34.000832337851	1
32	109210	34.000832823176	3
32	109435	34.001248823176	1
32	111308	34.005827639122	3
32	111430	34.006243639122	1
32	111435	34.006243655761	3
32	111555	34.006659655761	1
32	111578	34.006659943572	3
32	111666	34.007075943572	1
32	112115	35.000000205132	3
32	112152	35.000416205132	1
32	112157	35.000416219827	3
32	112322	35.000832219827	2
32	112331	35.000832321557	1
32	112408	35.000832822994	3
32	112633	35.001248822994	1
32	114788	35.006243680307	3
[...]
344	66570	19.00291393135	76
344	70230	20.003330057674	76
344	73236	21.003330049804	76
344	76156	22.003330043077	76
344	79076	23.003330034281	76
344	84485	26.003330194356	76
344	84712	26.003746206794	76
344	87790	27.003330173946	76
344	88015	27.003746184326	76
344	90987	28.003330155551	76
344	91213	28.003746164122	76
344	94184	29.003330139181	76
344	94410	29.003746146181	76
344	97388	30.003330123307	76
344	97612	30.003746128961	76
344	100590	31.003330109987	76
344	100814	31.003746114567	76
344	103785	32.003330098838	76
344	104008	32.003746102566	76
344	106915	33.003330089193	76
344	107173	33.003746092219	76
344	110111	34.003330081083	76
344	110369	34.003746083541	76
344	113622	35.003330074082	76
344	113852	35.003746088615	76
344	116906	36.003330075459	76
344	117134	36.003746090305	76
344	120097	37.003330079566	76
344	120327	37.003746094537	76
344	123294	38.003330085271	76
344	123526	38.00374610045	76
344	126460	39.003330115484	76
344	126899	39.004162241943	76
344	129526	40.003330125217	76
344	129965	40.004162258336	76
344	132589	41.00333013179	76
344	133028	41.004162276606	76
344	135648	42.00333013985	76
344	136087	42.004162296252	76
344	212871	95.002913863958	76
344	215294	96.002913854719	76
344	217710	97.002913845762	76
344	220282	98.003329952554	76
344	224608	99.003329952231	76
345	29014	8.004162806149	0
345	32393	9.004162593959	0
345	36237	10.002914051651	0
345	40226	11.002914035925	0
345	43758	12.00291402154	0
345	47294	13.002914008112	0
345	50942	14.002913995656	0
345	54390	15.002913984004	0
345	57876	16.002913970764	0
345	60423	17.002913957175	0
345	63016	18.002913944042	0
345	66570	19.00291393135	0
345	70230	20.003330057674	0
345	73236	21.003330049804	0
345	76156	22.003330043077	0
345	79076	23.003330034281	0
345	84485	26.003330194356	0
345	84712	26.003746206794	0
345	87790	27.003330173946	0
345	88015	27.003746184326	0
345	90987	28.003330155551	0
345	91213	28.003746164122	0
345	94184	29.003330139181	0
345	94410	29.003746146181	0
345	97388	30.003330123307	0
345	97612	30.003746128961	0
345	100590	31.003330109987	0
345	100814	31.003746114567	0
345	103785	32.003330098838	0
345	104008	32.003746102566	0
345	106915	33.003330089193	0
345	107173	33.003746092219	0
345	110111	34.003330081083	0
345	110369	34.003746083541	0
345	113622	35.003330074082	0
345	113852	35.003746088615	0
345	116906	36.003330075459	0
345	117134	36.003746090305	0
345	120097	37.003330079566	0
345	120327	37.003746094537	0
345	123294	38.003330085271	0
345	123526	38.00374610045	0
345	126460	39.003330115484	0
345	126899	39.004162241943	0
345	129526	40.003330125217	0
345	129965	40.004162258336	0
345	132589	41.00333013179	0
345	133028	41.004162276606	0
345	135648	42.00333013985	0
345	136087	42.004162296252	0
345	212871	95.002913863958	0
345	215294	96.002913854719	0
345	217710	97.002913845762	0
345	220282	98.003329952554	0
345	224608	99.003329952231	0
346	29014	8.004162806149	92
346	32393	9.004162593959	92
346	36237	10.002914051651	92
346	40226	11.002914035925	92
346	43758	12.00291402154	92
346	47294	13.002914008112	92
346	50942	14.002913995656	92
346	54390	15.002913984004	92
346	57876	16.002913970764	92
346	60423	17.002913957175	92
346	63016	18.002913944042	92
346	66570	19.00291393135	92
346	70230	20.003330057674	92
346	73236	21.003330049804	92
346	76156	22.003330043077	92
346	79076	23.003330034281	92
346	84485	26.003330194356	92
346	84712	26.003746206794	92
346	87790	27.003330173946	92
346	88015	27.003746184326	92
346	90987	28.003330155551	92
346	91213	28.003746164122	92
346	94184	29.003330139181	92
346	94410	29.003746146181	92
346	97388	30.003330123307	92
346	97612	30.003746128961	92
346	100590	31.003330109987	92
346	100814	31.003746114567	92
346	103785	32.003330098838	92
346	104008	32.003746102566	92
346	106915	33.003330089193	92
346	107173	33.003746092219	92
346	110111	34.003330081083	92
346	110369	34.003746083541	92
346	113622	35.003330074082	92
346	113852	35.003746088615	92
346	116906	36.003330075459	92
346	117134	36.003746090305	92
346	120097	37.003330079566	92
346	120327	37.003746094537	92
346	123294	38.003330085271	92
346	123526	38.00374610045	92
346	126460	39.003330115484	92
346	126899	39.004162241943	92
346	129526	40.003330125217	92
346	129965	40.004162258336	92
346	132589	41.00333013179	92
346	133028	41.004162276606	92
346	135648	42.00333013985	92
346	136087	42.004162296252	92
346	212871	95.002913863958	92
346	215294	96.002913854719	92
346	217710	97.002913845762	92
346	220282	98.003329952554	92
346	224608	99.003329952231	92
347	29173	8.004578899315	92
347	32560	9.004578683994	92
347	36242	10.002914065167	92
347	36513	10.003330138595	92
347	40232	11.002914049417	92
347	40444	11.003330121262	92
347	43763	12.002914035011	92
347	43976	12.003330105513	92
347	47299	13.00291402156	92
347	47512	13.003330090722	92
347	50946	14.002914009079	92
347	51229	14.003330076905	92
347	54394	15.002913997432	92
347	54708	15.003330063738	92
347	57881	16.002913984436	92
347	58180	16.003330047502	92
347	60428	17.002913971101	92
347	60727	17.003330030931	92
347	63022	18.002913958231	92
347	63346	18.003330014833	92
347	66577	19.002913945816	92
347	66902	19.003329999195	92
347	70235	20.003330073332	92
347	70539	20.003746121998	92
347	73241	21.003330069822	92
347	73477	21.003746107988	92
347	76161	22.003330067605	92
347	76397	22.003746096059	92
347	79082	23.003330063473	92
347	79318	23.003746083318	92
347	84725	26.003746238233	92
347	85002	26.004162250671	92
347	85350	26.004578729782	92
347	88029	27.00374621762	92
347	88314	27.004162228	92
347	88642	27.004578600026	92
347	91226	28.003746200512	92
347	91511	28.004162209084	92
347	91838	28.00457856905	92
347	94423	29.003746186801	92
347	94707	29.004162193802	92
347	95034	29.004578541231	92
347	97624	30.003746173294	92
347	97909	30.004162178949	92
347	98235	30.004578513915	92
347	100827	31.003746161538	92
347	101108	31.004162166119	92
347	101438	31.004578486719	92
347	104022	32.003746150705	92
347	104302	32.004162156312	92
347	104594	32.00457846277	92
347	106927	33.003330139249	92
347	107189	33.003746139937	92
347	107500	33.004162148802	92
347	107791	33.004578441646	92
347	110123	34.00333013064	92
347	110385	34.0037461308	92
347	110696	34.004162143511	92
347	110987	34.0045784235	92
347	113862	35.003746135341	92
347	114105	35.004162152363	92
347	114375	35.004578420286	92
347	117142	36.003746133648	92
347	117344	36.004162157785	92
347	117628	36.004578539075	92
347	120335	37.003746132538	92
347	120538	37.004162166628	92
347	120821	37.004578525439	92
347	123532	38.003746132893	92
347	123735	38.004162178225	92
347	124017	38.004578513812	92
347	126701	39.003746157627	92
347	127106	39.004578326262	92
347	129766	40.003746164415	92
347	130173	40.004578352263	92
347	132829	41.00374617023	92
347	133237	41.004578382987	92
347	135889	42.003746177254	92
347	136302	42.004578415255	92
347	212557	95.002497545356	92
347	212831	95.00291354577	92
347	213112	95.003329866268	92
347	214980	96.002497538359	92
347	215254	96.002913539356	92
347	215535	96.00332985944	92
347	217392	97.002497531643	92
347	217670	97.002913533757	92
347	217952	97.003329853643	92
347	219808	98.002497525557	92
347	220049	98.00291352985	92
347	220266	98.00332984647	92
347	220641	98.004162192014	92
347	220868	98.004578511437	92
347	224134	99.002497520079	92
347	224376	99.002913528817	92
347	224593	99.003329837679	92
347	224968	99.00416218029	92
347	225195	99.004578497817	92
348	29173	8.004578899315	76
348	32560	9.004578683994	76
348	36242	10.002914065167	76
348	36513	10.003330138595	76
348	40232	11.002914049417	76
348	40444	11.003330121262	76
348	43763	12.002914035011	76
348	43976	12.003330105513	76
348	47299	13.00291402156	76
348	47512	13.003330090722	76
348	50946	14.002914009079	76
348	51229	14.003330076905	76
348	54394	15.002913997432	76
348	54708	15.003330063738	76
348	57881	16.002913984436	76
348	58180	16.003330047502	76
348	60428	17.002913971101	76
348	60727	17.003330030931	76
348	63022	18.002913958231	76
348	63346	18.003330014833	76
348	66577	19.002913945816	76
348	66902	19.003329999195	76
348	70235	20.003330073332	76
348	70539	20.003746121998	76
348	73241	21.003330069822	76
348	73477	21.003746107988	76
348	76161	22.003330067605	76
348	76397	22.003746096059	76
348	79082	23.003330063473	76
348	79318	23.003746083318	76
348	84725	26.003746238233	76
348	85002	26.004162250671	76
348	85350	26.004578729782	76
348	88029	27.00374621762	76
348	88314	27.004162228	76
348	88642	27.004578600026	76
348	91226	28.003746200512	76
348	91511	28.004162209084	76
348	91838	28.00457856905	76
348	94423	29.003746186801	76
348	94707	29.004162193802	76
348	95034	29.004578541231	76
348	97624	30.003746173294	76
348	97909	30.004162178949	76
348	98235	30.004578513915	76
348	100827	31.003746161538	76
348	101108	31.004162166119	76
348	101438	31.004578486719	76
348	104022	32.003746150705	76
348	104302	32.004162156312	76
348	104594	32.00457846277	76
348	106927	33.003330139249	76
348	107189	33.003746139937	76
348	107500	33.004162148802	76
348	107791	33.004578441646	76
348	110123	34.00333013064	76
348	110385	34.0037461308	76
348	110696	34.004162143511	76
348	110987	34.0045784235	76
348	113862	35.003746135341	76
348	114105	35.004162152363	76
348	114375	35.004578420286	76
348	117142	36.003746133648	76
348	117344	36.004162157785	76
348	117628	36.004578539075	76
348	120335	37.003746132538	76
348	120538	37.004162166628	76
348	120821	37.004578525439	76
348	123532	38.003746132893	76
348	123735	38.004162178225	76
348	124017	38.004578513812	76
348	126701	39.003746157627	76
348	127106	39.004578326262	76
348	129766	40.003746164415	76
348	130173	40.004578352263	76
348	132829	41.00374617023	76
348	133237	41.004578382987	76
348	135889	42.003746177254	76
348	136302	42.004578415255	76
348	212557	95.002497545356	76
348	212831	95.00291354577	76
348	213112	95.003329866268	76
348	214980	96.002497538359	76
348	215254	96.002913539356	76
348	215535	96.00332985944	76
348	217392	97.002497531643	76
348	217670	97.002913533757	76
348	217952	97.003329853643	76
348	219808	98.002497525557	76
348	220049	98.00291352985	76
348	220266	98.00332984647	76
348	220641	98.004162192014	76
348	220868	98.004578511437	76
348	224134	99.002497520079	76
348	224376	99.002913528817	76
348	224593	99.003329837679	76
348	224968	99.00416218029	76
348	225195	99.004578497817	76
349	29175	8.004578899315	76
349	32562	9.004578683994	76
349	36244	10.002914065167	76
349	40234	11.002914049417	76
349	43765	12.002914035011	76
349	47301	13.00291402156	76
349	50948	14.002914009079	76
349	54396	15.002913997432	76
349	57883	16.002913984436	76
349	60430	17.002913971101	76
349	63024	18.002913958231	76
349	66579	19.002913945816	76
349	70237	20.003330073332	76
349	73243	21.003330069822	76
349	76163	22.003330067605	76
349	79084	23.003330063473	76
349	84727	26.003746238233	76
349	85004	26.004162250671	76
349	88031	27.00374621762	76
349	88316	27.004162228	76
349	91228	28.003746200512	76
349	91513	28.004162209084	76
349	94425	29.003746186801	76
349	94709	29.004162193802	76
349	97626	30.003746173294	76
349	97911	30.004162178949	76
349	100829	31.003746161538	76
349	101110	31.004162166119	76
349	104024	32.003746150705	76
349	106929	33.003330139249	76
349	107191	33.003746139937	76
349	110125	34.00333013064	76
349	110387	34.0037461308	76
349	113864	35.003746135341	76
349	117144	36.003746133648	76
349	120337	37.003746132538	76
349	123534	38.003746132893	76
349	126703	39.003746157627	76
349	129768	40.003746164415	76
349	132831	41.00374617023	76
349	135891	42.003746177254	76
349	212559	95.002497545356	76
349	214982	96.002497538359	76
349	217394	97.002497531643	76
349	219810	98.002497525557	76
349	220643	98.004162192014	76
349	224136	99.002497520079	76
349	224970	99.00416218029	76
350	29175	8.004578899315	76
350	32562	9.004578683994	76
350	36244	10.002914065167	76
350	40234	11.002914049417	76
350	43765	12.002914035011	76
350	47301	13.00291402156	76
350	50948	14.002914009079	76
350	54396	15.002913997432	76
350	57883	16.002913984436	76
350	60430	17.002913971101	76
350	63024	18.002913958231	76
350	66579	19.002913945816	76
350	70237	20.003330073332	76
350	73243	21.003330069822	76
350	76163	22.003330067605	76
350	79084	23.003330063473	76
350	84727	26.003746238233	76
350	85004	26.004162250671	76
350	88031	27.00374621762	76
350	88316	27.004162228	76
350	91228	28.003746200512	76
350	91513	28.004162209084	76
350	94425	29.003746186801	76
350	94709	29.004162193802	76
350	97626	30.003746173294	76
350	97911	30.004162178949	76
350	100829	31.003746161538	76
350	101110	31.004162166119	76
350	104024	32.003746150705	76
350	106929	33.003330139249	76
350	107191	33.003746139937	76
350	110125	34.00333013064	76
350	110387	34.0037461308	76
350	113864	35.003746135341	76
350	117144	36.003746133648	76
350	120337	37.003746132538	76
350	123534	38.003746132893	76
350	126703	39.003746157627	76
350	129768	40.003746164415	76
350	132831	41.00374617023	76
350	135891	42.003746177254	76
350	212559	95.002497545356	76
350	214982	96.002497538359	76
350	217394	97.002497531643	76
350	219810	98.002497525557	76
350	220643	98.004162192014	76
350	224136	99.002497520079	76
350	224970	99.00416218029	76
351	29175	8.004578899315	1
351	29175	8.004578899315	0
351	32562	9.004578683994	1
351	32562	9.004578683994	0
351	36244	10.002914065167	1
351	36244	10.002914065167	0
351	40234	11.002914049417	1
351	40234	11.002914049417	0
351	43765	12.002914035011	1
351	43765	12.002914035011	0
351	47301	13.00291402156	1
351	47301	13.00291402156	0
351	50948	14.002914009079	1
351	50948	14.002914009079	0
351	54396	15.002913997432	1
351	54396	15.002913997432	0
351	57883	16.002913984436	1
351	57883	16.002913984436	0
351	60430	17.002913971101	1
351	60430	17.002913971101	0
351	63024	18.002913958231	1
351	63024	18.002913958231	0
351	66579	19.002913945816	1
351	66579	19.002913945816	0
351	70237	20.003330073332	1
351	70237	20.003330073332	0
351	73243	21.003330069822	1
351	73243	21.003330069822	0
351	76163	22.003330067605	1
351	76163	22.003330067605	0
351	79084	23.003330063473	1
351	79084	23.003330063473	0
351	84727	26.003746238233	1
351	84727	26.003746238233	0
351	85004	26.004162250671	1
351	85004	26.004162250671	0
351	88031	27.00374621762	1
351	88031	27.00374621762	0
351	88316	27.004162228	1
351	88316	27.004162228	0
351	91228	28.003746200512	1
351	91228	28.003746200512	0
351	91513	28.004162209084	1
351	91513	28.004162209084	0
351	94425	29.003746186801	1
351	94425	29.003746186801	0
351	94709	29.004162193802	1
351	94709	29.004162193802	0
351	97626	30.003746173294	1
351	97626	30.003746173294	0
351	97911	30.004162178949	1
351	97911	30.004162178949	0
351	100829	31.003746161538	1
351	100829	31.003746161538	0
351	101110	31.004162166119	1
351	101110	31.004162166119	0
351	104024	32.003746150705	1
351	104024	32.003746150705	0
351	106929	33.003330139249	1
351	106929	33.003330139249	0
351	107191	33.003746139937	1
351	107191	33.003746139937	0
351	110125	34.00333013064	1
351	110125	34.00333013064	0
351	110387	34.0037461308	1
351	110387	34.0037461308	0
351	113864	35.003746135341	1
351	113864	35.003746135341	0
351	117144	36.003746133648	1
351	117144	36.003746133648	0
351	120337	37.003746132538	1
351	120337	37.003746132538	0
351	123534	38.003746132893	1
351	123534	38.003746132893	0
351	126703	39.003746157627	1
351	126703	39.003746157627	0
351	129768	40.003746164415	1
351	129768	40.003746164415	0
351	132831	41.00374617023	1
351	132831	41.00374617023	0
351	135891	42.003746177254	1
351	135891	42.003746177254	0
351	212559	95.002497545356	1
351	212559	95.002497545356	0
351	214982	96.002497538359	1
351	214982	96.002497538359	0
351	217394	97.002497531643	1
351	217394	97.002497531643	0
351	219810	98.002497525557	1
351	219810	98.002497525557	0
351	220643	98.004162192014	1
351	220643	98.004162192014	0
351	224136	99.002497520079	1
351	224136	99.002497520079	0
351	224970	99.00416218029	1
351	224970	99.00416218029	0
352	29175	8.004578899315	76
352	32562	9.004578683994	76
352	36244	10.002914065167	76
352	40234	11.002914049417	76
352	43765	12.002914035011	76
352	47301	13.00291402156	76
352	50948	14.002914009079	76
352	54396	15.002913997432	76
352	57883	16.002913984436	76
352	60430	17.002913971101	76
352	63024	18.002913958231	76
352	66579	19.002913945816	76
352	70237	20.003330073332	76
352	73243	21.003330069822	76
352	76163	22.003330067605	76
352	79084	23.003330063473	76
352	84727	26.003746238233	76
352	85004	26.004162250671	76
352	88031	27.00374621762	76
352	88316	27.004162228	76
352	91228	28.003746200512	76
352	91513	28.004162209084	76
352	94425	29.003746186801	76
352	94709	29.004162193802	76
352	97626	30.003746173294	76
352	97911	30.004162178949	76
352	100829	31.003746161538	76
352	101110	31.004162166119	76
352	104024	32.003746150705	76
352	106929	33.003330139249	76
352	107191	33.003746139937	76
352	110125	34.00333013064	76
352	110387	34.0037461308	76
352	113864	35.003746135341	76
352	117144	36.003746133648	76
352	120337	37.003746132538	76
352	123534	38.003746132893	76
352	126703	39.003746157627	76
352	129768	40.003746164415	76
352	132831	41.00374617023	76
352	135891	42.003746177254	76
352	212559	95.002497545356	76
352	214982	96.002497538359	76
352	217394	97.002497531643	76
352	219810	98.002497525557	76
352	220643	98.004162192014	76
352	224136	99.002497520079	76
352	224970	99.00416218029	76
353	29175	8.004578899315	0
353	32562	9.004578683994	0
353	36244	10.002914065167	0
353	40234	11.002914049417	0
353	43765	12.002914035011	0
353	47301	13.00291402156	0
353	50948	14.002914009079	0
353	54396	15.002913997432	0
353	57883	16.002913984436	0
353	60430	17.002913971101	0
353	63024	18.002913958231	0
353	66579	19.002913945816	0
353	70237	20.003330073332	0
353	73243	21.003330069822	0
353	76163	22.003330067605	0
353	79084	23.003330063473	0
353	84727	26.003746238233	0
353	85004	26.004162250671	0
353	88031	27.00374621762	0
353	88316	27.004162228	0
353	91228	28.003746200512	0
353	91513	28.004162209084	0
353	94425	29.003746186801	0
353	94709	29.004162193802	0
353	97626	30.003746173294	0
353	97911	30.004162178949	0
353	100829	31.003746161538	0
353	101110	31.004162166119	0
353	104024	32.003746150705	0
353	106929	33.003330139249	0
353	107191	33.003746139937	0
353	110125	34.00333013064	0
353	110387	34.0037461308	0
353	113864	35.003746135341	0
353	117144	36.003746133648	0
353	120337	37.003746132538	0
353	123534	38.003746132893	0
353	126703	39.003746157627	0
353	129768	40.003746164415	0
353	132831	41.00374617023	0
353	135891	42.003746177254	0
353	212559	95.002497545356	0
353	214982	96.002497538359	0
353	217394	97.002497531643	0
353	219810	98.002497525557	0
353	220643	98.004162192014	0
353	224136	99.002497520079	0
353	224970	99.00416218029	0
354	29175	8.004578899315	92
354	32562	9.004578683994	92
354	36244	10.002914065167	92
354	40234	11.002914049417	92
354	43765	12.002914035011	92
354	47301	13.00291402156	92
354	50948	14.002914009079	92
354	54396	15.002913997432	92
354	57883	16.002913984436	92
354	60430	17.002913971101	92
354	63024	18.002913958231	92
354	66579	19.002913945816	92
354	70237	20.003330073332	92
354	73243	21.003330069822	92
354	76163	22.003330067605	92
354	79084	23.003330063473	92
354	84727	26.003746238233	92
354	85004	26.004162250671	92
354	88031	27.00374621762	92
354	88316	27.004162228	92
354	91228	28.003746200512	92
354	91513	28.004162209084	92
354	94425	29.003746186801	92
354	94709	29.004162193802	92
354	97626	30.003746173294	92
354	97911	30.004162178949	92
354	100829	31.003746161538	92
354	101110	31.004162166119	92
354	104024	32.003746150705	92
354	106929	33.003330139249	92
354	107191	33.003746139937	92
354	110125	34.00333013064	92
354	110387	34.0037461308	92
354	113864	35.003746135341	92
354	117144	36.003746133648	92
354	120337	37.003746132538	92
354	123534	38.003746132893	92
354	126703	39.003746157627	92
354	129768	40.003746164415	92
354	132831	41.00374617023	92
354	135891	42.003746177254	92
354	212559	95.002497545356	92
354	214982	96.002497538359	92
354	217394	97.002497531643	92
354	219810	98.002497525557	92
354	220643	98.004162192014	92
354	224136	99.002497520079	92
354	224970	99.00416218029	92
355	64333	18.00624409852	2
355	85983	26.006660036435	4
355	221508	98.006243649264	59

